/*---------------------------------------------------------------------------*\
| =========                 |                                                 |
| \\      /  F ield         | OpenFOAM: The Open Source CFD Toolbox           |
|  \\    /   O peration     | Version:  v1806                                 |
|   \\  /    A nd           | Web:      www.OpenFOAM.com                      |
|    \\/     M anipulation  |                                                 |
\*---------------------------------------------------------------------------*/
Build  : v1806
Arch   : "LSB;label=32;scalar=64"
Exec   : myOverPimpleDyMFoam
Date   : Mar 19 2019
Time   : 16:51:52
Host   : "MATH-AJIT-15"
PID    : 13220
I/O    : uncollated
Case   : /home/ajit/OpenFOAM/ajit-v1806/oversetWithAdaptiveMeshRefineMent/oversetAndAMRFvMesh/testCase/simpleRotor
nProcs : 1
trapFpe: Floating point exception trapping enabled (FOAM_SIGFPE).
fileModificationChecking : Monitoring run-time modified files using timeStampMaster (fileModificationSkew 10)
allowSystemOperations : Allowing user-supplied system call operations

// * * * * * * * * * * * * * * * * * * * * * * * * * * * * * * * * * * * * * //
Create time

Create mesh for time = 0

Selecting dynamicFvMesh oversetAndAMRFvMesh
Selecting motion solver: multiSolidBodyMotionSolver
Selecting solid-body motion function rotatingMotion
Applying solid body motion rotatingMotion to 640 points of cellZone movingZone

PIMPLE: Operating solver in PISO mode

Reading field p

Reading field U

Reading/calculating face flux field phi

Creating cellMask field to block out hole cells

inverseDistance : detected 2 mesh regions
    zone:0 nCells:1296  voxels:(11 11 11) bb:(-1.41509717e-08 -1.41509717e-08 -1.41509717e-08) (0.01000001415 0.01000001415 0.000500014151)
    zone:1 nCells:256  voxels:(11 11 11) bb:(0.001499992368 0.003499992368 -7.632168761e-09) (0.008500007632 0.006500007632 0.0005000076322)
Overset analysis : nCells : 1552
    calculated   : 0
    interpolated : 40 (interpolated from local:40  mixed local/remote:0  remote:0)
    hole         : 1512

Creating interpolatedCells field 

Selecting incompressible transport model Newtonian
Selecting turbulence model type laminar
Selecting laminar stress model Stokes
Reading/calculating face velocity Uf

No MRF models present

No finite volume options present
Courant Number mean: 0 max: 0

Starting time loop

Courant Number mean: 0 max: 0
deltaT = 0.00025
Time = 0.00025

inverseDistance : detected 2 mesh regions
    zone:0 nCells:1296  voxels:(11 11 11) bb:(-1.41509717e-08 -1.41509717e-08 -1.41509717e-08) (0.01000001415 0.01000001415 0.000500014151)
    zone:1 nCells:256  voxels:(11 11 11) bb:(0.001463589831 0.003412970071 -7.768469933e-09) (0.008536410169 0.006587029929 0.0005000077685)
Overset analysis : nCells : 1552
    calculated   : 0
    interpolated : 54 (interpolated from local:54  mixed local/remote:0  remote:0)
    hole         : 1498

Selected 0 cells for refinement out of 1552.
Selected 0 split edges out of a possible 0.
PIMPLE: iteration 1
DILUPBiCGStab:  Solving for p, Initial residual = 0, Final residual = 0, No Iterations 0
time step continuity errors : sum local = 0, global = 0, cumulative = 0
DILUPBiCGStab:  Solving for p, Initial residual = 0, Final residual = 0, No Iterations 0
time step continuity errors : sum local = 0, global = 0, cumulative = 0
ExecutionTime = 0.11 s  ClockTime = 0 s

Courant Number mean: 0 max: 0
deltaT = 0.00025
Time = 0.0005

inverseDistance : detected 2 mesh regions
    zone:0 nCells:1296  voxels:(11 11 11) bb:(-1.41509717e-08 -1.41509717e-08 -1.41509717e-08) (0.01000001415 0.01000001415 0.000500014151)
    zone:1 nCells:256  voxels:(11 11 11) bb:(0.001429397433 0.003326939615 -7.902088552e-09) (0.008570602567 0.006673060385 0.0005000079021)
Overset analysis : nCells : 1552
    calculated   : 0
    interpolated : 58 (interpolated from local:58  mixed local/remote:0  remote:0)
    hole         : 1494

Selected 0 cells for refinement out of 1552.
Selected 0 split edges out of a possible 0.
PIMPLE: iteration 1
DILUPBiCGStab:  Solving for p, Initial residual = 0, Final residual = 0, No Iterations 0
time step continuity errors : sum local = 0, global = 0, cumulative = 0
DILUPBiCGStab:  Solving for p, Initial residual = 0, Final residual = 0, No Iterations 0
time step continuity errors : sum local = 0, global = 0, cumulative = 0
ExecutionTime = 0.18 s  ClockTime = 1 s

Courant Number mean: 0 max: 0
deltaT = 0.00025
Time = 0.00075

inverseDistance : detected 2 mesh regions
    zone:0 nCells:1296  voxels:(11 11 11) bb:(-1.41509717e-08 -1.41509717e-08 -1.41509717e-08) (0.01000001415 0.01000001415 0.000500014151)
    zone:1 nCells:256  voxels:(11 11 11) bb:(0.001397436543 0.003241954765 -8.032832724e-09) (0.008602563457 0.006758045235 0.0005000080328)
Overset analysis : nCells : 1552
    calculated   : 0
    interpolated : 34 (interpolated from local:34  mixed local/remote:0  remote:0)
    hole         : 1518

Selected 0 cells for refinement out of 1552.
Selected 0 split edges out of a possible 0.
PIMPLE: iteration 1
DILUPBiCGStab:  Solving for p, Initial residual = 0, Final residual = 0, No Iterations 0
time step continuity errors : sum local = 0, global = 0, cumulative = 0
DILUPBiCGStab:  Solving for p, Initial residual = 0, Final residual = 0, No Iterations 0
time step continuity errors : sum local = 0, global = 0, cumulative = 0
ExecutionTime = 0.25 s  ClockTime = 1 s

Courant Number mean: 0 max: 0
deltaT = 0.00025
Time = 0.001

inverseDistance : detected 2 mesh regions
    zone:0 nCells:1296  voxels:(11 11 11) bb:(-1.41509717e-08 -1.41509717e-08 -1.41509717e-08) (0.01000001415 0.01000001415 0.000500014151)
    zone:1 nCells:256  voxels:(11 11 11) bb:(0.001367727136 0.003158068633 -8.160521545e-09) (0.008632272864 0.006841931367 0.0005000081605)
Overset analysis : nCells : 1552
    calculated   : 0
    interpolated : 34 (interpolated from local:34  mixed local/remote:0  remote:0)
    hole         : 1518

Selected 0 cells for refinement out of 1552.
Selected 0 split edges out of a possible 0.
PIMPLE: iteration 1
DILUPBiCGStab:  Solving for p, Initial residual = 0, Final residual = 0, No Iterations 0
time step continuity errors : sum local = 0, global = 0, cumulative = 0
DILUPBiCGStab:  Solving for p, Initial residual = 0, Final residual = 0, No Iterations 0
time step continuity errors : sum local = 0, global = 0, cumulative = 0
ExecutionTime = 0.33 s  ClockTime = 1 s

Courant Number mean: 0 max: 0
deltaT = 0.00025
Time = 0.00125

inverseDistance : detected 2 mesh regions
    zone:0 nCells:1296  voxels:(11 11 11) bb:(-1.41509717e-08 -1.41509717e-08 -1.41509717e-08) (0.01000001415 0.01000001415 0.000500014151)
    zone:1 nCells:256  voxels:(11 11 11) bb:(0.00134028778 0.003075333647 -8.284984387e-09) (0.00865971222 0.006924666353 0.000500008285)
Overset analysis : nCells : 1552
    calculated   : 0
    interpolated : 50 (interpolated from local:50  mixed local/remote:0  remote:0)
    hole         : 1502

Selected 0 cells for refinement out of 1552.
Selected 0 split edges out of a possible 0.
PIMPLE: iteration 1
DILUPBiCGStab:  Solving for p, Initial residual = 0, Final residual = 0, No Iterations 0
time step continuity errors : sum local = 0, global = 0, cumulative = 0
DILUPBiCGStab:  Solving for p, Initial residual = 0, Final residual = 0, No Iterations 0
time step continuity errors : sum local = 0, global = 0, cumulative = 0
ExecutionTime = 0.4 s  ClockTime = 2 s

Courant Number mean: 0 max: 0
deltaT = 0.00025
Time = 0.0015

inverseDistance : detected 2 mesh regions
    zone:0 nCells:1296  voxels:(11 11 11) bb:(-1.41509717e-08 -1.41509717e-08 -1.41509717e-08) (0.01000001415 0.01000001415 0.000500014151)
    zone:1 nCells:256  voxels:(11 11 11) bb:(0.001315135622 0.002993801513 -8.406060234e-09) (0.008684864378 0.007006198487 0.0005000084061)
Overset analysis : nCells : 1552
    calculated   : 0
    interpolated : 58 (interpolated from local:58  mixed local/remote:0  remote:0)
    hole         : 1494

Selected 0 cells for refinement out of 1552.
Selected 0 split edges out of a possible 0.
PIMPLE: iteration 1
DILUPBiCGStab:  Solving for p, Initial residual = 0, Final residual = 0, No Iterations 0
time step continuity errors : sum local = 0, global = 0, cumulative = 0
DILUPBiCGStab:  Solving for p, Initial residual = 0, Final residual = 0, No Iterations 0
time step continuity errors : sum local = 0, global = 0, cumulative = 0
ExecutionTime = 0.48 s  ClockTime = 2 s

Courant Number mean: 0 max: 0
deltaT = 0.00025
Time = 0.00175

inverseDistance : detected 2 mesh regions
    zone:0 nCells:1296  voxels:(11 11 11) bb:(-1.41509717e-08 -1.41509717e-08 -1.41509717e-08) (0.01000001415 0.01000001415 0.000500014151)
    zone:1 nCells:256  voxels:(11 11 11) bb:(0.001292286384 0.002913523186 -8.523597122e-09) (0.008707713616 0.007086476814 0.0005000085236)
Overset analysis : nCells : 1552
    calculated   : 0
    interpolated : 50 (interpolated from local:50  mixed local/remote:0  remote:0)
    hole         : 1502

Selected 0 cells for refinement out of 1552.
Selected 0 split edges out of a possible 0.
PIMPLE: iteration 1
DILUPBiCGStab:  Solving for p, Initial residual = 0, Final residual = 0, No Iterations 0
time step continuity errors : sum local = 0, global = 0, cumulative = 0
DILUPBiCGStab:  Solving for p, Initial residual = 0, Final residual = 0, No Iterations 0
time step continuity errors : sum local = 0, global = 0, cumulative = 0
ExecutionTime = 0.56 s  ClockTime = 3 s

Courant Number mean: 0 max: 0
deltaT = 0.00025
Time = 0.002

inverseDistance : detected 2 mesh regions
    zone:0 nCells:1296  voxels:(11 11 11) bb:(-1.41509717e-08 -1.41509717e-08 -1.41509717e-08) (0.01000001415 0.01000001415 0.000500014151)
    zone:1 nCells:256  voxels:(11 11 11) bb:(0.001271754344 0.002834548838 -8.637451613e-09) (0.008728245656 0.007165451162 0.0005000086375)
Overset analysis : nCells : 1552
    calculated   : 0
    interpolated : 54 (interpolated from local:54  mixed local/remote:0  remote:0)
    hole         : 1498

Selected 0 cells for refinement out of 1552.
Selected 0 split edges out of a possible 0.
PIMPLE: iteration 1
DILUPBiCGStab:  Solving for p, Initial residual = 0, Final residual = 0, No Iterations 0
time step continuity errors : sum local = 0, global = 0, cumulative = 0
DILUPBiCGStab:  Solving for p, Initial residual = 0, Final residual = 0, No Iterations 0
time step continuity errors : sum local = 0, global = 0, cumulative = 0
ExecutionTime = 0.62 s  ClockTime = 3 s

Courant Number mean: 0 max: 0
deltaT = 0.00025
Time = 0.00225

inverseDistance : detected 2 mesh regions
    zone:0 nCells:1296  voxels:(11 11 11) bb:(-1.41509717e-08 -1.41509717e-08 -1.41509717e-08) (0.01000001415 0.01000001415 0.000500014151)
    zone:1 nCells:256  voxels:(11 11 11) bb:(0.001253552335 0.002756927824 -8.74748835e-09) (0.008746447665 0.007243072176 0.0005000087475)
Overset analysis : nCells : 1552
    calculated   : 0
    interpolated : 36 (interpolated from local:36  mixed local/remote:0  remote:0)
    hole         : 1516

Selected 0 cells for refinement out of 1552.
Selected 0 split edges out of a possible 0.
PIMPLE: iteration 1
DILUPBiCGStab:  Solving for p, Initial residual = 0, Final residual = 0, No Iterations 0
time step continuity errors : sum local = 0, global = 0, cumulative = 0
DILUPBiCGStab:  Solving for p, Initial residual = 0, Final residual = 0, No Iterations 0
time step continuity errors : sum local = 0, global = 0, cumulative = 0
ExecutionTime = 0.7 s  ClockTime = 4 s

Courant Number mean: 0 max: 0
deltaT = 0.00025
Time = 0.0025

inverseDistance : detected 2 mesh regions
    zone:0 nCells:1296  voxels:(11 11 11) bb:(-1.41509717e-08 -1.41509717e-08 -1.41509717e-08) (0.01000001415 0.01000001415 0.000500014151)
    zone:1 nCells:256  voxels:(11 11 11) bb:(0.001237691732 0.002680708656 -8.853579651e-09) (0.008762308268 0.007319291344 0.0005000088536)
Overset analysis : nCells : 1552
    calculated   : 0
    interpolated : 32 (interpolated from local:32  mixed local/remote:0  remote:0)
    hole         : 1520

Selected 0 cells for refinement out of 1552.
Selected 0 split edges out of a possible 0.
PIMPLE: iteration 1
DILUPBiCGStab:  Solving for p, Initial residual = 0, Final residual = 0, No Iterations 0
time step continuity errors : sum local = 0, global = 0, cumulative = 0
DILUPBiCGStab:  Solving for p, Initial residual = 0, Final residual = 0, No Iterations 0
time step continuity errors : sum local = 0, global = 0, cumulative = 0
ExecutionTime = 0.77 s  ClockTime = 4 s

Courant Number mean: 0 max: 0
deltaT = 0.00025
Time = 0.00275

inverseDistance : detected 2 mesh regions
    zone:0 nCells:1296  voxels:(11 11 11) bb:(-1.41509717e-08 -1.41509717e-08 -1.41509717e-08) (0.01000001415 0.01000001415 0.000500014151)
    zone:1 nCells:256  voxels:(11 11 11) bb:(0.001224182447 0.002605938969 -8.95560515e-09) (0.008775817553 0.007394061031 0.0005000089556)
Overset analysis : nCells : 1552
    calculated   : 0
    interpolated : 54 (interpolated from local:54  mixed local/remote:0  remote:0)
    hole         : 1498

Selected 0 cells for refinement out of 1552.
Selected 0 split edges out of a possible 0.
PIMPLE: iteration 1
DILUPBiCGStab:  Solving for p, Initial residual = 0, Final residual = 0, No Iterations 0
time step continuity errors : sum local = 0, global = 0, cumulative = 0
DILUPBiCGStab:  Solving for p, Initial residual = 0, Final residual = 0, No Iterations 0
time step continuity errors : sum local = 0, global = 0, cumulative = 0
ExecutionTime = 0.84 s  ClockTime = 5 s

Courant Number mean: 0 max: 0
deltaT = 0.00025
Time = 0.003

inverseDistance : detected 2 mesh regions
    zone:0 nCells:1296  voxels:(11 11 11) bb:(-1.41509717e-08 -1.41509717e-08 -1.41509717e-08) (0.01000001415 0.01000001415 0.000500014151)
    zone:1 nCells:256  voxels:(11 11 11) bb:(0.001213032925 0.00253266549 -9.053451491e-09) (0.008786967075 0.00746733451 0.0005000090535)
Overset analysis : nCells : 1552
    calculated   : 0
    interpolated : 42 (interpolated from local:42  mixed local/remote:0  remote:0)
    hole         : 1510

Selected 0 cells for refinement out of 1552.
Selected 0 split edges out of a possible 0.
PIMPLE: iteration 1
DILUPBiCGStab:  Solving for p, Initial residual = 0, Final residual = 0, No Iterations 0
time step continuity errors : sum local = 0, global = 0, cumulative = 0
DILUPBiCGStab:  Solving for p, Initial residual = 0, Final residual = 0, No Iterations 0
time step continuity errors : sum local = 0, global = 0, cumulative = 0
ExecutionTime = 0.92 s  ClockTime = 5 s

Courant Number mean: 0 max: 0
deltaT = 0.00025
Time = 0.00325

inverseDistance : detected 2 mesh regions
    zone:0 nCells:1296  voxels:(11 11 11) bb:(-1.41509717e-08 -1.41509717e-08 -1.41509717e-08) (0.01000001415 0.01000001415 0.000500014151)
    zone:1 nCells:256  voxels:(11 11 11) bb:(0.001204250132 0.002460934013 -9.147012029e-09) (0.008795749868 0.007539065987 0.000500009147)
Overset analysis : nCells : 1552
    calculated   : 0
    interpolated : 48 (interpolated from local:48  mixed local/remote:0  remote:0)
    hole         : 1504

Selected 0 cells for refinement out of 1552.
Selected 0 split edges out of a possible 0.
PIMPLE: iteration 1
DILUPBiCGStab:  Solving for p, Initial residual = 0, Final residual = 0, No Iterations 0
time step continuity errors : sum local = 0, global = 0, cumulative = 0
DILUPBiCGStab:  Solving for p, Initial residual = 0, Final residual = 0, No Iterations 0
time step continuity errors : sum local = 0, global = 0, cumulative = 0
ExecutionTime = 0.99 s  ClockTime = 6 s

Courant Number mean: 0 max: 0
deltaT = 0.00025
Time = 0.0035

inverseDistance : detected 2 mesh regions
    zone:0 nCells:1296  voxels:(11 11 11) bb:(-1.41509717e-08 -1.41509717e-08 -1.41509717e-08) (0.01000001415 0.01000001415 0.000500014151)
    zone:1 nCells:256  voxels:(11 11 11) bb:(0.001197839558 0.002390789368 -9.236186598e-09) (0.008802160442 0.007609210632 0.0005000092362)
Overset analysis : nCells : 1552
    calculated   : 0
    interpolated : 60 (interpolated from local:60  mixed local/remote:0  remote:0)
    hole         : 1492

Selected 0 cells for refinement out of 1552.
Selected 0 split edges out of a possible 0.
PIMPLE: iteration 1
DILUPBiCGStab:  Solving for p, Initial residual = 0, Final residual = 0, No Iterations 0
time step continuity errors : sum local = 0, global = 0, cumulative = 0
DILUPBiCGStab:  Solving for p, Initial residual = 0, Final residual = 0, No Iterations 0
time step continuity errors : sum local = 0, global = 0, cumulative = 0
ExecutionTime = 1.05 s  ClockTime = 7 s

Courant Number mean: 0 max: 0
deltaT = 0.00025
Time = 0.00375

inverseDistance : detected 2 mesh regions
    zone:0 nCells:1296  voxels:(11 11 11) bb:(-1.41509717e-08 -1.41509717e-08 -1.41509717e-08) (0.01000001415 0.01000001415 0.000500014151)
    zone:1 nCells:256  voxels:(11 11 11) bb:(0.001193805209 0.002322275394 -9.320881285e-09) (0.008806194791 0.007677724606 0.0005000093209)
Overset analysis : nCells : 1552
    calculated   : 0
    interpolated : 62 (interpolated from local:62  mixed local/remote:0  remote:0)
    hole         : 1490

Selected 0 cells for refinement out of 1552.
Selected 0 split edges out of a possible 0.
PIMPLE: iteration 1
DILUPBiCGStab:  Solving for p, Initial residual = 0, Final residual = 0, No Iterations 0
time step continuity errors : sum local = 0, global = 0, cumulative = 0
DILUPBiCGStab:  Solving for p, Initial residual = 0, Final residual = 0, No Iterations 0
time step continuity errors : sum local = 0, global = 0, cumulative = 0
ExecutionTime = 1.13 s  ClockTime = 7 s

Courant Number mean: 0 max: 0
deltaT = 0.00025
Time = 0.004

inverseDistance : detected 2 mesh regions
    zone:0 nCells:1296  voxels:(11 11 11) bb:(-1.41509717e-08 -1.41509717e-08 -1.41509717e-08) (0.01000001415 0.01000001415 0.000500014151)
    zone:1 nCells:256  voxels:(11 11 11) bb:(0.001192149607 0.00225543491 -9.401008234e-09) (0.008807850393 0.00774456509 0.000500009401)
Overset analysis : nCells : 1552
    calculated   : 0
    interpolated : 50 (interpolated from local:50  mixed local/remote:0  remote:0)
    hole         : 1502

Selected 0 cells for refinement out of 1552.
Selected 0 split edges out of a possible 0.
PIMPLE: iteration 1
DILUPBiCGStab:  Solving for p, Initial residual = 0, Final residual = 0, No Iterations 0
time step continuity errors : sum local = 0, global = 0, cumulative = 0
DILUPBiCGStab:  Solving for p, Initial residual = 0, Final residual = 0, No Iterations 0
time step continuity errors : sum local = 0, global = 0, cumulative = 0
ExecutionTime = 1.2 s  ClockTime = 8 s

Courant Number mean: 0 max: 0
deltaT = 0.00025
Time = 0.00425

inverseDistance : detected 2 mesh regions
    zone:0 nCells:1296  voxels:(11 11 11) bb:(-1.41509717e-08 -1.41509717e-08 -1.41509717e-08) (0.01000001415 0.01000001415 0.000500014151)
    zone:1 nCells:256  voxels:(11 11 11) bb:(0.001192873786 0.002190309688 -9.476485477e-09) (0.008807126214 0.007809690312 0.0005000094765)
Overset analysis : nCells : 1552
    calculated   : 0
    interpolated : 64 (interpolated from local:64  mixed local/remote:0  remote:0)
    hole         : 1488

Selected 0 cells for refinement out of 1552.
Selected 0 split edges out of a possible 0.
PIMPLE: iteration 1
DILUPBiCGStab:  Solving for p, Initial residual = 0, Final residual = 0, No Iterations 0
time step continuity errors : sum local = 0, global = 0, cumulative = 0
DILUPBiCGStab:  Solving for p, Initial residual = 0, Final residual = 0, No Iterations 0
time step continuity errors : sum local = 0, global = 0, cumulative = 0
ExecutionTime = 1.27 s  ClockTime = 9 s

Courant Number mean: 0 max: 0
deltaT = 0.00025
Time = 0.0045

inverseDistance : detected 2 mesh regions
    zone:0 nCells:1296  voxels:(11 11 11) bb:(-1.41509717e-08 -1.41509717e-08 -1.41509717e-08) (0.01000001415 0.01000001415 0.000500014151)
    zone:1 nCells:256  voxels:(11 11 11) bb:(0.001195977293 0.00212694043 -9.547236784e-09) (0.008804022707 0.00787305957 0.0005000095472)
Overset analysis : nCells : 1552
    calculated   : 0
    interpolated : 58 (interpolated from local:58  mixed local/remote:0  remote:0)
    hole         : 1494

Selected 0 cells for refinement out of 1552.
Selected 0 split edges out of a possible 0.
PIMPLE: iteration 1
DILUPBiCGStab:  Solving for p, Initial residual = 0, Final residual = 0, No Iterations 0
time step continuity errors : sum local = 0, global = 0, cumulative = 0
DILUPBiCGStab:  Solving for p, Initial residual = 0, Final residual = 0, No Iterations 0
time step continuity errors : sum local = 0, global = 0, cumulative = 0
ExecutionTime = 1.35 s  ClockTime = 10 s

Courant Number mean: 0 max: 0
deltaT = 0.00025
Time = 0.00475

inverseDistance : detected 2 mesh regions
    zone:0 nCells:1296  voxels:(11 11 11) bb:(-1.41509717e-08 -1.41509717e-08 -1.41509717e-08) (0.01000001415 0.01000001415 0.000500014151)
    zone:1 nCells:256  voxels:(11 11 11) bb:(0.00120145819 0.002065366739 -9.613191519e-09) (0.00879854181 0.007934633261 0.0005000096132)
Overset analysis : nCells : 1552
    calculated   : 0
    interpolated : 70 (interpolated from local:70  mixed local/remote:0  remote:0)
    hole         : 1482

Selected 0 cells for refinement out of 1552.
Selected 0 split edges out of a possible 0.
PIMPLE: iteration 1
DILUPBiCGStab:  Solving for p, Initial residual = 0, Final residual = 0, No Iterations 0
time step continuity errors : sum local = 0, global = 0, cumulative = 0
DILUPBiCGStab:  Solving for p, Initial residual = 0, Final residual = 0, No Iterations 0
time step continuity errors : sum local = 0, global = 0, cumulative = 0
ExecutionTime = 1.42 s  ClockTime = 10 s

Courant Number mean: 0 max: 0
deltaT = 0.00025
Time = 0.005

inverseDistance : detected 2 mesh regions
    zone:0 nCells:1296  voxels:(11 11 11) bb:(-1.41509717e-08 -1.41509717e-08 -1.41509717e-08) (0.01000001415 0.01000001415 0.000500014151)
    zone:1 nCells:256  voxels:(11 11 11) bb:(0.001209313051 0.002005627098 -9.67428454e-09) (0.008790686949 0.007994372902 0.0005000096743)
Overset analysis : nCells : 1552
    calculated   : 0
    interpolated : 76 (interpolated from local:76  mixed local/remote:0  remote:0)
    hole         : 1476

Selected 0 cells for refinement out of 1552.
Selected 0 split edges out of a possible 0.
PIMPLE: iteration 1
DILUPBiCGStab:  Solving for p, Initial residual = 0, Final residual = 0, No Iterations 0
time step continuity errors : sum local = 0, global = 0, cumulative = 0
DILUPBiCGStab:  Solving for p, Initial residual = 0, Final residual = 0, No Iterations 0
time step continuity errors : sum local = 0, global = 0, cumulative = 0
ExecutionTime = 1.5 s  ClockTime = 11 s

Courant Number mean: 0 max: 0
deltaT = 0.00025
Time = 0.00525

inverseDistance : detected 2 mesh regions
    zone:0 nCells:1296  voxels:(11 11 11) bb:(-1.41509717e-08 -1.41509717e-08 -1.41509717e-08) (0.01000001415 0.01000001415 0.000500014151)
    zone:1 nCells:256  voxels:(11 11 11) bb:(0.001219536967 0.001947758841 -9.730456078e-09) (0.008780463033 0.008052241159 0.0005000097305)
Overset analysis : nCells : 1552
    calculated   : 0
    interpolated : 74 (interpolated from local:74  mixed local/remote:0  remote:0)
    hole         : 1478

Selected 0 cells for refinement out of 1552.
Selected 0 split edges out of a possible 0.
PIMPLE: iteration 1
DILUPBiCGStab:  Solving for p, Initial residual = 0, Final residual = 0, No Iterations 0
time step continuity errors : sum local = 0, global = 0, cumulative = 0
DILUPBiCGStab:  Solving for p, Initial residual = 0, Final residual = 0, No Iterations 0
time step continuity errors : sum local = 0, global = 0, cumulative = 0
ExecutionTime = 1.58 s  ClockTime = 12 s

Courant Number mean: 0 max: 0
deltaT = 0.00025
Time = 0.0055

inverseDistance : detected 2 mesh regions
    zone:0 nCells:1296  voxels:(11 11 11) bb:(-1.41509717e-08 -1.41509717e-08 -1.41509717e-08) (0.01000001415 0.01000001415 0.000500014151)
    zone:1 nCells:256  voxels:(11 11 11) bb:(0.001232123548 0.001891798134 -9.781651656e-09) (0.008767876452 0.008108201866 0.0005000097817)
Overset analysis : nCells : 1552
    calculated   : 0
    interpolated : 54 (interpolated from local:54  mixed local/remote:0  remote:0)
    hole         : 1498

Selected 0 cells for refinement out of 1552.
Selected 0 split edges out of a possible 0.
PIMPLE: iteration 1
DILUPBiCGStab:  Solving for p, Initial residual = 0, Final residual = 0, No Iterations 0
time step continuity errors : sum local = 0, global = 0, cumulative = 0
DILUPBiCGStab:  Solving for p, Initial residual = 0, Final residual = 0, No Iterations 0
time step continuity errors : sum local = 0, global = 0, cumulative = 0
ExecutionTime = 1.66 s  ClockTime = 12 s

Courant Number mean: 0 max: 0
deltaT = 0.00025
Time = 0.00575

inverseDistance : detected 2 mesh regions
    zone:0 nCells:1296  voxels:(11 11 11) bb:(-1.41509717e-08 -1.41509717e-08 -1.41509717e-08) (0.01000001415 0.01000001415 0.000500014151)
    zone:1 nCells:256  voxels:(11 11 11) bb:(0.001247064928 0.001837779951 -9.827822012e-09) (0.008752935072 0.008162220049 0.0005000098278)
Overset analysis : nCells : 1552
    calculated   : 0
    interpolated : 54 (interpolated from local:54  mixed local/remote:0  remote:0)
    hole         : 1498

Selected 0 cells for refinement out of 1552.
Selected 0 split edges out of a possible 0.
PIMPLE: iteration 1
DILUPBiCGStab:  Solving for p, Initial residual = 0, Final residual = 0, No Iterations 0
time step continuity errors : sum local = 0, global = 0, cumulative = 0
DILUPBiCGStab:  Solving for p, Initial residual = 0, Final residual = 0, No Iterations 0
time step continuity errors : sum local = 0, global = 0, cumulative = 0
ExecutionTime = 1.74 s  ClockTime = 14 s

Courant Number mean: 0 max: 0
deltaT = 0.00025
Time = 0.006

inverseDistance : detected 2 mesh regions
    zone:0 nCells:1296  voxels:(11 11 11) bb:(-1.41509717e-08 -1.41509717e-08 -1.41509717e-08) (0.01000001415 0.01000001415 0.000500014151)
    zone:1 nCells:256  voxels:(11 11 11) bb:(0.001264351769 0.001785738052 -9.868923023e-09) (0.008735648231 0.008214261948 0.0005000098689)
Overset analysis : nCells : 1552
    calculated   : 4
    interpolated : 70 (interpolated from local:70  mixed local/remote:0  remote:0)
    hole         : 1478

Selected 0 cells for refinement out of 1552.
Selected 0 split edges out of a possible 0.
PIMPLE: iteration 1
DILUPBiCGStab:  Solving for p, Initial residual = 0, Final residual = 0, No Iterations 0
time step continuity errors : sum local = 0, global = 0, cumulative = 0
DILUPBiCGStab:  Solving for p, Initial residual = 0, Final residual = 0, No Iterations 0
time step continuity errors : sum local = 0, global = 0, cumulative = 0
ExecutionTime = 1.82 s  ClockTime = 14 s

Courant Number mean: 0 max: 0
deltaT = 0.00025
Time = 0.00625

inverseDistance : detected 2 mesh regions
    zone:0 nCells:1296  voxels:(11 11 11) bb:(-1.41509717e-08 -1.41509717e-08 -1.41509717e-08) (0.01000001415 0.01000001415 0.000500014151)
    zone:1 nCells:256  voxels:(11 11 11) bb:(0.001283973267 0.001735704961 -9.904915649e-09) (0.008716026733 0.008264295039 0.0005000099049)
Overset analysis : nCells : 1552
    calculated   : 6
    interpolated : 74 (interpolated from local:74  mixed local/remote:0  remote:0)
    hole         : 1472

Selected 0 cells for refinement out of 1552.
Selected 0 split edges out of a possible 0.
PIMPLE: iteration 1
DILUPBiCGStab:  Solving for p, Initial residual = 0, Final residual = 0, No Iterations 0
time step continuity errors : sum local = 0, global = 0, cumulative = 0
DILUPBiCGStab:  Solving for p, Initial residual = 0, Final residual = 0, No Iterations 0
time step continuity errors : sum local = 0, global = 0, cumulative = 0
ExecutionTime = 1.91 s  ClockTime = 15 s

Courant Number mean: 0 max: 0
deltaT = 0.00025
Time = 0.0065

inverseDistance : detected 2 mesh regions
    zone:0 nCells:1296  voxels:(11 11 11) bb:(-1.41509717e-08 -1.41509717e-08 -1.41509717e-08) (0.01000001415 0.01000001415 0.000500014151)
    zone:1 nCells:256  voxels:(11 11 11) bb:(0.001305917161 0.001687711946 -9.935765888e-09) (0.008694082839 0.008312288054 0.0005000099358)
Overset analysis : nCells : 1552
    calculated   : 8
    interpolated : 84 (interpolated from local:84  mixed local/remote:0  remote:0)
    hole         : 1460

Selected 0 cells for refinement out of 1552.
Selected 0 split edges out of a possible 0.
PIMPLE: iteration 1
DILUPBiCGStab:  Solving for p, Initial residual = 0, Final residual = 0, No Iterations 0
time step continuity errors : sum local = 0, global = 0, cumulative = 0
DILUPBiCGStab:  Solving for p, Initial residual = 0, Final residual = 0, No Iterations 0
time step continuity errors : sum local = 0, global = 0, cumulative = 0
ExecutionTime = 1.98 s  ClockTime = 15 s

Courant Number mean: 0 max: 0
deltaT = 0.00025
Time = 0.00675

inverseDistance : detected 2 mesh regions
    zone:0 nCells:1296  voxels:(11 11 11) bb:(-1.41509717e-08 -1.41509717e-08 -1.41509717e-08) (0.01000001415 0.01000001415 0.000500014151)
    zone:1 nCells:256  voxels:(11 11 11) bb:(0.001330169735 0.001641789003 -9.961444725e-09) (0.008669830265 0.008358210997 0.0005000099614)
Overset analysis : nCells : 1552
    calculated   : 10
    interpolated : 76 (interpolated from local:76  mixed local/remote:0  remote:0)
    hole         : 1466

Selected 0 cells for refinement out of 1552.
Selected 0 split edges out of a possible 0.
PIMPLE: iteration 1
DILUPBiCGStab:  Solving for p, Initial residual = 0, Final residual = 0, No Iterations 0
time step continuity errors : sum local = 0, global = 0, cumulative = 0
DILUPBiCGStab:  Solving for p, Initial residual = 0, Final residual = 0, No Iterations 0
time step continuity errors : sum local = 0, global = 0, cumulative = 0
ExecutionTime = 2.06 s  ClockTime = 16 s

Courant Number mean: 0 max: 0
deltaT = 0.00025
Time = 0.007

inverseDistance : detected 2 mesh regions
    zone:0 nCells:1296  voxels:(11 11 11) bb:(-1.41509717e-08 -1.41509717e-08 -1.41509717e-08) (0.01000001415 0.01000001415 0.000500014151)
    zone:1 nCells:256  voxels:(11 11 11) bb:(0.001356715832 0.001597964832 -9.981928103e-09) (0.008643284168 0.008402035168 0.0005000099819)
Overset analysis : nCells : 1552
    calculated   : 10
    interpolated : 76 (interpolated from local:76  mixed local/remote:0  remote:0)
    hole         : 1466

Selected 0 cells for refinement out of 1552.
Selected 0 split edges out of a possible 0.
PIMPLE: iteration 1
DILUPBiCGStab:  Solving for p, Initial residual = 0, Final residual = 0, No Iterations 0
time step continuity errors : sum local = 0, global = 0, cumulative = 0
DILUPBiCGStab:  Solving for p, Initial residual = 0, Final residual = 0, No Iterations 0
time step continuity errors : sum local = 0, global = 0, cumulative = 0
ExecutionTime = 2.14 s  ClockTime = 16 s

Courant Number mean: 0 max: 0
deltaT = 0.00025
Time = 0.00725

inverseDistance : detected 2 mesh regions
    zone:0 nCells:1296  voxels:(11 11 11) bb:(-1.41509717e-08 -1.41509717e-08 -1.41509717e-08) (0.01000001415 0.01000001415 0.000500014151)
    zone:1 nCells:256  voxels:(11 11 11) bb:(0.001385538862 0.001556266821 -9.997196889e-09) (0.008614461138 0.008443733179 0.0005000099972)
Overset analysis : nCells : 1552
    calculated   : 10
    interpolated : 68 (interpolated from local:68  mixed local/remote:0  remote:0)
    hole         : 1474

Selected 0 cells for refinement out of 1552.
Selected 0 split edges out of a possible 0.
PIMPLE: iteration 1
DILUPBiCGStab:  Solving for p, Initial residual = 0, Final residual = 0, No Iterations 0
time step continuity errors : sum local = 0, global = 0, cumulative = 0
DILUPBiCGStab:  Solving for p, Initial residual = 0, Final residual = 0, No Iterations 0
time step continuity errors : sum local = 0, global = 0, cumulative = 0
ExecutionTime = 2.22 s  ClockTime = 17 s

Courant Number mean: 0 max: 0
deltaT = 0.00025
Time = 0.0075

inverseDistance : detected 2 mesh regions
    zone:0 nCells:1296  voxels:(11 11 11) bb:(-1.41509717e-08 -1.41509717e-08 -1.41509717e-08) (0.01000001415 0.01000001415 0.000500014151)
    zone:1 nCells:256  voxels:(11 11 11) bb:(0.001416620812 0.001516721029 -1.000723685e-08) (0.008583379188 0.008483278971 0.0005000100072)
Overset analysis : nCells : 1552
    calculated   : 14
    interpolated : 66 (interpolated from local:66  mixed local/remote:0  remote:0)
    hole         : 1472

Selected 0 cells for refinement out of 1552.
Selected 0 split edges out of a possible 0.
PIMPLE: iteration 1
DILUPBiCGStab:  Solving for p, Initial residual = 0, Final residual = 0, No Iterations 0
time step continuity errors : sum local = 0, global = 0, cumulative = 0
DILUPBiCGStab:  Solving for p, Initial residual = 0, Final residual = 0, No Iterations 0
time step continuity errors : sum local = 0, global = 0, cumulative = 0
ExecutionTime = 2.3 s  ClockTime = 17 s

Courant Number mean: 0 max: 0
deltaT = 0.00025
Time = 0.00775

inverseDistance : detected 2 mesh regions
    zone:0 nCells:1296  voxels:(11 11 11) bb:(-1.41509717e-08 -1.41509717e-08 -1.41509717e-08) (0.01000001415 0.01000001415 0.000500014151)
    zone:1 nCells:256  voxels:(11 11 11) bb:(0.001449942256 0.001479352173 -1.001203866e-08) (0.008550057744 0.008520647827 0.000500010012)
Overset analysis : nCells : 1552
    calculated   : 0
    interpolated : 40 (interpolated from local:40  mixed local/remote:0  remote:0)
    hole         : 1512

Selected 0 cells for refinement out of 1552.
Selected 0 split edges out of a possible 0.
PIMPLE: iteration 1
DILUPBiCGStab:  Solving for p, Initial residual = 0, Final residual = 0, No Iterations 0
time step continuity errors : sum local = 0, global = 0, cumulative = 0
DILUPBiCGStab:  Solving for p, Initial residual = 0, Final residual = 0, No Iterations 0
time step continuity errors : sum local = 0, global = 0, cumulative = 0
ExecutionTime = 2.38 s  ClockTime = 18 s

Courant Number mean: 0 max: 0
deltaT = 0.00025
Time = 0.008

inverseDistance : detected 2 mesh regions
    zone:0 nCells:1296  voxels:(11 11 11) bb:(-1.41509717e-08 -1.41509717e-08 -1.41509717e-08) (0.01000001415 0.01000001415 0.000500014151)
    zone:1 nCells:256  voxels:(11 11 11) bb:(0.001485482369 0.001444183606 -1.001159784e-08) (0.008514517631 0.008555816394 0.0005000100116)
Overset analysis : nCells : 1552
    calculated   : 0
    interpolated : 40 (interpolated from local:40  mixed local/remote:0  remote:0)
    hole         : 1512

Selected 0 cells for refinement out of 1552.
Selected 0 split edges out of a possible 0.
PIMPLE: iteration 1
DILUPBiCGStab:  Solving for p, Initial residual = 0, Final residual = 0, No Iterations 0
time step continuity errors : sum local = 0, global = 0, cumulative = 0
DILUPBiCGStab:  Solving for p, Initial residual = 0, Final residual = 0, No Iterations 0
time step continuity errors : sum local = 0, global = 0, cumulative = 0
ExecutionTime = 2.46 s  ClockTime = 19 s

Courant Number mean: 0 max: 0
deltaT = 0.00025
Time = 0.00825

inverseDistance : detected 2 mesh regions
    zone:0 nCells:1296  voxels:(11 11 11) bb:(-1.41509717e-08 -1.41509717e-08 -1.41509717e-08) (0.01000001415 0.01000001415 0.000500014151)
    zone:1 nCells:256  voxels:(11 11 11) bb:(0.001523218941 0.001411237308 -1.000591481e-08) (0.008476781059 0.008588762692 0.0005000100059)
Overset analysis : nCells : 1552
    calculated   : 12
    interpolated : 66 (interpolated from local:66  mixed local/remote:0  remote:0)
    hole         : 1474

Selected 0 cells for refinement out of 1552.
Selected 0 split edges out of a possible 0.
PIMPLE: iteration 1
DILUPBiCGStab:  Solving for p, Initial residual = 0, Final residual = 0, No Iterations 0
time step continuity errors : sum local = 0, global = 0, cumulative = 0
DILUPBiCGStab:  Solving for p, Initial residual = 0, Final residual = 0, No Iterations 0
time step continuity errors : sum local = 0, global = 0, cumulative = 0
ExecutionTime = 2.54 s  ClockTime = 20 s

Courant Number mean: 0 max: 0
deltaT = 0.00025
Time = 0.0085

inverseDistance : detected 2 mesh regions
    zone:0 nCells:1296  voxels:(11 11 11) bb:(-1.41509717e-08 -1.41509717e-08 -1.41509717e-08) (0.01000001415 0.01000001415 0.000500014151)
    zone:1 nCells:256  voxels:(11 11 11) bb:(0.001563128387 0.001380533868 -9.994994849e-09) (0.008436871613 0.008619466132 0.000500009995)
Overset analysis : nCells : 1552
    calculated   : 10
    interpolated : 68 (interpolated from local:68  mixed local/remote:0  remote:0)
    hole         : 1474

Selected 0 cells for refinement out of 1552.
Selected 0 split edges out of a possible 0.
PIMPLE: iteration 1
DILUPBiCGStab:  Solving for p, Initial residual = 0, Final residual = 0, No Iterations 0
time step continuity errors : sum local = 0, global = 0, cumulative = 0
DILUPBiCGStab:  Solving for p, Initial residual = 0, Final residual = 0, No Iterations 0
time step continuity errors : sum local = 0, global = 0, cumulative = 0
ExecutionTime = 2.62 s  ClockTime = 20 s

Courant Number mean: 0 max: 0
deltaT = 0.00025
Time = 0.00875

inverseDistance : detected 2 mesh regions
    zone:0 nCells:1296  voxels:(11 11 11) bb:(-1.41509717e-08 -1.41509717e-08 -1.41509717e-08) (0.01000001415 0.01000001415 0.000500014151)
    zone:1 nCells:256  voxels:(11 11 11) bb:(0.001605185764 0.001352092476 -9.978848118e-09) (0.008394814236 0.008647907524 0.0005000099788)
Overset analysis : nCells : 1552
    calculated   : 10
    interpolated : 76 (interpolated from local:76  mixed local/remote:0  remote:0)
    hole         : 1466

Selected 0 cells for refinement out of 1552.
Selected 0 split edges out of a possible 0.
PIMPLE: iteration 1
DILUPBiCGStab:  Solving for p, Initial residual = 0, Final residual = 0, No Iterations 0
time step continuity errors : sum local = 0, global = 0, cumulative = 0
DILUPBiCGStab:  Solving for p, Initial residual = 0, Final residual = 0, No Iterations 0
time step continuity errors : sum local = 0, global = 0, cumulative = 0
ExecutionTime = 2.7 s  ClockTime = 21 s

Courant Number mean: 0 max: 0
deltaT = 0.00025
Time = 0.009

inverseDistance : detected 2 mesh regions
    zone:0 nCells:1296  voxels:(11 11 11) bb:(-1.41509717e-08 -1.41509717e-08 -1.41509717e-08) (0.01000001415 0.01000001415 0.000500014151)
    zone:1 nCells:256  voxels:(11 11 11) bb:(0.001649364789 0.001325930906 -9.957489668e-09) (0.008350635211 0.008674069094 0.0005000099575)
Overset analysis : nCells : 1552
    calculated   : 8
    interpolated : 74 (interpolated from local:74  mixed local/remote:0  remote:0)
    hole         : 1470

Selected 0 cells for refinement out of 1552.
Selected 0 split edges out of a possible 0.
PIMPLE: iteration 1
DILUPBiCGStab:  Solving for p, Initial residual = 0, Final residual = 0, No Iterations 0
time step continuity errors : sum local = 0, global = 0, cumulative = 0
DILUPBiCGStab:  Solving for p, Initial residual = 0, Final residual = 0, No Iterations 0
time step continuity errors : sum local = 0, global = 0, cumulative = 0
ExecutionTime = 2.79 s  ClockTime = 22 s

Courant Number mean: 0 max: 0
deltaT = 0.00025
Time = 0.00925

inverseDistance : detected 2 mesh regions
    zone:0 nCells:1296  voxels:(11 11 11) bb:(-1.41509717e-08 -1.41509717e-08 -1.41509717e-08) (0.01000001415 0.01000001415 0.000500014151)
    zone:1 nCells:256  voxels:(11 11 11) bb:(0.001695637851 0.001302065509 -9.930939457e-09) (0.008304362149 0.008697934491 0.0005000099309)
Overset analysis : nCells : 1552
    calculated   : 8
    interpolated : 84 (interpolated from local:84  mixed local/remote:0  remote:0)
    hole         : 1460

Selected 0 cells for refinement out of 1552.
Selected 0 split edges out of a possible 0.
PIMPLE: iteration 1
DILUPBiCGStab:  Solving for p, Initial residual = 0, Final residual = 0, No Iterations 0
time step continuity errors : sum local = 0, global = 0, cumulative = 0
DILUPBiCGStab:  Solving for p, Initial residual = 0, Final residual = 0, No Iterations 0
time step continuity errors : sum local = 0, global = 0, cumulative = 0
ExecutionTime = 2.86 s  ClockTime = 22 s

Courant Number mean: 0 max: 0
deltaT = 0.00025
Time = 0.0095

inverseDistance : detected 2 mesh regions
    zone:0 nCells:1296  voxels:(11 11 11) bb:(-1.41509717e-08 -1.41509717e-08 -1.41509717e-08) (0.01000001415 0.01000001415 0.000500014151)
    zone:1 nCells:256  voxels:(11 11 11) bb:(0.00174397603 0.0012805112 -9.899222378e-09) (0.00825602397 0.0087194888 0.0005000098992)
Overset analysis : nCells : 1552
    calculated   : 6
    interpolated : 74 (interpolated from local:74  mixed local/remote:0  remote:0)
    hole         : 1472

Selected 0 cells for refinement out of 1552.
Selected 0 split edges out of a possible 0.
PIMPLE: iteration 1
DILUPBiCGStab:  Solving for p, Initial residual = 0, Final residual = 0, No Iterations 0
time step continuity errors : sum local = 0, global = 0, cumulative = 0
DILUPBiCGStab:  Solving for p, Initial residual = 0, Final residual = 0, No Iterations 0
time step continuity errors : sum local = 0, global = 0, cumulative = 0
ExecutionTime = 2.94 s  ClockTime = 22 s

Courant Number mean: 0 max: 0
deltaT = 0.00025
Time = 0.00975

inverseDistance : detected 2 mesh regions
    zone:0 nCells:1296  voxels:(11 11 11) bb:(-1.41509717e-08 -1.41509717e-08 -1.41509717e-08) (0.01000001415 0.01000001415 0.000500014151)
    zone:1 nCells:256  voxels:(11 11 11) bb:(0.001794349118 0.001261281449 -9.862368277e-09) (0.008205650882 0.008738718551 0.0005000098624)
Overset analysis : nCells : 1552
    calculated   : 4
    interpolated : 70 (interpolated from local:70  mixed local/remote:0  remote:0)
    hole         : 1478

Selected 0 cells for refinement out of 1552.
Selected 0 split edges out of a possible 0.
PIMPLE: iteration 1
DILUPBiCGStab:  Solving for p, Initial residual = 0, Final residual = 0, No Iterations 0
time step continuity errors : sum local = 0, global = 0, cumulative = 0
DILUPBiCGStab:  Solving for p, Initial residual = 0, Final residual = 0, No Iterations 0
time step continuity errors : sum local = 0, global = 0, cumulative = 0
ExecutionTime = 3.02 s  ClockTime = 23 s

Courant Number mean: 0 max: 0
deltaT = 0.00025
Time = 0.01

inverseDistance : detected 2 mesh regions
    zone:0 nCells:1296  voxels:(11 11 11) bb:(-1.41509717e-08 -1.41509717e-08 -1.41509717e-08) (0.01000001415 0.01000001415 0.000500014151)
    zone:1 nCells:256  voxels:(11 11 11) bb:(0.001846725632 0.001244388274 -9.820412004e-09) (0.008153274368 0.008755611726 0.0005000098204)
Overset analysis : nCells : 1552
    calculated   : 0
    interpolated : 54 (interpolated from local:54  mixed local/remote:0  remote:0)
    hole         : 1498

Selected 0 cells for refinement out of 1552.
Selected 0 split edges out of a possible 0.
PIMPLE: iteration 1
DILUPBiCGStab:  Solving for p, Initial residual = 0, Final residual = 0, No Iterations 0
time step continuity errors : sum local = 0, global = 0, cumulative = 0
DILUPBiCGStab:  Solving for p, Initial residual = 0, Final residual = 0, No Iterations 0
time step continuity errors : sum local = 0, global = 0, cumulative = 0
ExecutionTime = 3.13 s  ClockTime = 24 s

Courant Number mean: 0 max: 0
deltaT = 0.00025
Time = 0.01025

inverseDistance : detected 2 mesh regions
    zone:0 nCells:1296  voxels:(11 11 11) bb:(-1.41509717e-08 -1.41509717e-08 -1.41509717e-08) (0.01000001415 0.01000001415 0.000500014151)
    zone:1 nCells:256  voxels:(11 11 11) bb:(0.001901072838 0.001229842233 -9.773393447e-09) (0.008098927162 0.008770157767 0.0005000097734)
Overset analysis : nCells : 1552
    calculated   : 0
    interpolated : 54 (interpolated from local:54  mixed local/remote:0  remote:0)
    hole         : 1498

Selected 0 cells for refinement out of 1552.
Selected 0 split edges out of a possible 0.
PIMPLE: iteration 1
DILUPBiCGStab:  Solving for p, Initial residual = 0, Final residual = 0, No Iterations 0
time step continuity errors : sum local = 0, global = 0, cumulative = 0
DILUPBiCGStab:  Solving for p, Initial residual = 0, Final residual = 0, No Iterations 0
time step continuity errors : sum local = 0, global = 0, cumulative = 0
ExecutionTime = 3.21 s  ClockTime = 24 s

Courant Number mean: 0 max: 0
deltaT = 0.00025
Time = 0.0105

inverseDistance : detected 2 mesh regions
    zone:0 nCells:1296  voxels:(11 11 11) bb:(-1.41509717e-08 -1.41509717e-08 -1.41509717e-08) (0.01000001415 0.01000001415 0.000500014151)
    zone:1 nCells:256  voxels:(11 11 11) bb:(0.001957356773 0.001217652417 -9.72135759e-09) (0.008042643227 0.008782347583 0.0005000097214)
Overset analysis : nCells : 1552
    calculated   : 0
    interpolated : 76 (interpolated from local:76  mixed local/remote:0  remote:0)
    hole         : 1476

Selected 0 cells for refinement out of 1552.
Selected 0 split edges out of a possible 0.
PIMPLE: iteration 1
DILUPBiCGStab:  Solving for p, Initial residual = 0, Final residual = 0, No Iterations 0
time step continuity errors : sum local = 0, global = 0, cumulative = 0
DILUPBiCGStab:  Solving for p, Initial residual = 0, Final residual = 0, No Iterations 0
time step continuity errors : sum local = 0, global = 0, cumulative = 0
ExecutionTime = 3.29 s  ClockTime = 24 s

Courant Number mean: 0 max: 0
deltaT = 0.00025
Time = 0.01075

inverseDistance : detected 2 mesh regions
    zone:0 nCells:1296  voxels:(11 11 11) bb:(-1.41509717e-08 -1.41509717e-08 -1.41509717e-08) (0.01000001415 0.01000001415 0.000500014151)
    zone:1 nCells:256  voxels:(11 11 11) bb:(0.002015542259 0.001207826444 -9.664354569e-09) (0.007984457741 0.008792173556 0.0005000096644)
Overset analysis : nCells : 1552
    calculated   : 0
    interpolated : 74 (interpolated from local:74  mixed local/remote:0  remote:0)
    hole         : 1478

Selected 0 cells for refinement out of 1552.
Selected 0 split edges out of a possible 0.
PIMPLE: iteration 1
DILUPBiCGStab:  Solving for p, Initial residual = 0, Final residual = 0, No Iterations 0
time step continuity errors : sum local = 0, global = 0, cumulative = 0
DILUPBiCGStab:  Solving for p, Initial residual = 0, Final residual = 0, No Iterations 0
time step continuity errors : sum local = 0, global = 0, cumulative = 0
ExecutionTime = 3.37 s  ClockTime = 25 s

Courant Number mean: 0 max: 0
deltaT = 0.00025
Time = 0.011

inverseDistance : detected 2 mesh regions
    zone:0 nCells:1296  voxels:(11 11 11) bb:(-1.41509717e-08 -1.41509717e-08 -1.41509717e-08) (0.01000001415 0.01000001415 0.000500014151)
    zone:1 nCells:256  voxels:(11 11 11) bb:(0.002075592932 0.001200370455 -9.60243974e-09) (0.007924407068 0.008799629545 0.0005000096024)
Overset analysis : nCells : 1552
    calculated   : 0
    interpolated : 70 (interpolated from local:70  mixed local/remote:0  remote:0)
    hole         : 1482

Selected 0 cells for refinement out of 1552.
Selected 0 split edges out of a possible 0.
PIMPLE: iteration 1
DILUPBiCGStab:  Solving for p, Initial residual = 0, Final residual = 0, No Iterations 0
time step continuity errors : sum local = 0, global = 0, cumulative = 0
DILUPBiCGStab:  Solving for p, Initial residual = 0, Final residual = 0, No Iterations 0
time step continuity errors : sum local = 0, global = 0, cumulative = 0
ExecutionTime = 3.45 s  ClockTime = 26 s

Courant Number mean: 0 max: 0
deltaT = 0.00025
Time = 0.01125

inverseDistance : detected 2 mesh regions
    zone:0 nCells:1296  voxels:(11 11 11) bb:(-1.41509717e-08 -1.41509717e-08 -1.41509717e-08) (0.01000001415 0.01000001415 0.000500014151)
    zone:1 nCells:256  voxels:(11 11 11) bb:(0.002137471264 0.00119528911 -9.535673772e-09) (0.007862528736 0.00880471089 0.0005000095357)
Overset analysis : nCells : 1552
    calculated   : 0
    interpolated : 60 (interpolated from local:60  mixed local/remote:0  remote:0)
    hole         : 1492

Selected 0 cells for refinement out of 1552.
Selected 0 split edges out of a possible 0.
PIMPLE: iteration 1
DILUPBiCGStab:  Solving for p, Initial residual = 0, Final residual = 0, No Iterations 0
time step continuity errors : sum local = 0, global = 0, cumulative = 0
DILUPBiCGStab:  Solving for p, Initial residual = 0, Final residual = 0, No Iterations 0
time step continuity errors : sum local = 0, global = 0, cumulative = 0
ExecutionTime = 3.52 s  ClockTime = 26 s

Courant Number mean: 0 max: 0
deltaT = 0.00025
Time = 0.0115

inverseDistance : detected 2 mesh regions
    zone:0 nCells:1296  voxels:(11 11 11) bb:(-1.41509717e-08 -1.41509717e-08 -1.41509717e-08) (0.01000001415 0.01000001415 0.000500014151)
    zone:1 nCells:256  voxels:(11 11 11) bb:(0.002201138582 0.001192585584 -9.464122723e-09) (0.007798861418 0.008807414416 0.0005000094641)
Overset analysis : nCells : 1552
    calculated   : 0
    interpolated : 62 (interpolated from local:62  mixed local/remote:0  remote:0)
    hole         : 1490

Selected 0 cells for refinement out of 1552.
Selected 0 split edges out of a possible 0.
PIMPLE: iteration 1
DILUPBiCGStab:  Solving for p, Initial residual = 0, Final residual = 0, No Iterations 0
time step continuity errors : sum local = 0, global = 0, cumulative = 0
DILUPBiCGStab:  Solving for p, Initial residual = 0, Final residual = 0, No Iterations 0
time step continuity errors : sum local = 0, global = 0, cumulative = 0
ExecutionTime = 3.6 s  ClockTime = 27 s

Courant Number mean: 0 max: 0
deltaT = 0.00025
Time = 0.01175

inverseDistance : detected 2 mesh regions
    zone:0 nCells:1296  voxels:(11 11 11) bb:(-1.41509717e-08 -1.41509717e-08 -1.41509717e-08) (0.01000001415 0.01000001415 0.000500014151)
    zone:1 nCells:256  voxels:(11 11 11) bb:(0.002266555096 0.001192261566 -9.387858158e-09) (0.007733444904 0.008807738434 0.0005000093879)
Overset analysis : nCells : 1552
    calculated   : 0
    interpolated : 50 (interpolated from local:50  mixed local/remote:0  remote:0)
    hole         : 1502

Selected 0 cells for refinement out of 1552.
Selected 0 split edges out of a possible 0.
PIMPLE: iteration 1
DILUPBiCGStab:  Solving for p, Initial residual = 0, Final residual = 0, No Iterations 0
time step continuity errors : sum local = 0, global = 0, cumulative = 0
DILUPBiCGStab:  Solving for p, Initial residual = 0, Final residual = 0, No Iterations 0
time step continuity errors : sum local = 0, global = 0, cumulative = 0
ExecutionTime = 3.68 s  ClockTime = 28 s

Courant Number mean: 0 max: 0
deltaT = 0.00025
Time = 0.012

inverseDistance : detected 2 mesh regions
    zone:0 nCells:1296  voxels:(11 11 11) bb:(-1.41509717e-08 -1.41509717e-08 -1.41509717e-08) (0.01000001415 0.01000001415 0.000500014151)
    zone:1 nCells:256  voxels:(11 11 11) bb:(0.002333679923 0.00119431726 -9.306957268e-09) (0.007666320077 0.00880568274 0.000500009307)
Overset analysis : nCells : 1552
    calculated   : 0
    interpolated : 62 (interpolated from local:62  mixed local/remote:0  remote:0)
    hole         : 1490

Selected 0 cells for refinement out of 1552.
Selected 0 split edges out of a possible 0.
PIMPLE: iteration 1
DILUPBiCGStab:  Solving for p, Initial residual = 0, Final residual = 0, No Iterations 0
time step continuity errors : sum local = 0, global = 0, cumulative = 0
DILUPBiCGStab:  Solving for p, Initial residual = 0, Final residual = 0, No Iterations 0
time step continuity errors : sum local = 0, global = 0, cumulative = 0
ExecutionTime = 3.76 s  ClockTime = 29 s

Courant Number mean: 0 max: 0
deltaT = 0.00025
Time = 0.01225

inverseDistance : detected 2 mesh regions
    zone:0 nCells:1296  voxels:(11 11 11) bb:(-1.41509717e-08 -1.41509717e-08 -1.41509717e-08) (0.01000001415 0.01000001415 0.000500014151)
    zone:1 nCells:256  voxels:(11 11 11) bb:(0.002402471112 0.001198751381 -9.221502995e-09) (0.007597528888 0.008801248619 0.0005000092215)
Overset analysis : nCells : 1552
    calculated   : 0
    interpolated : 58 (interpolated from local:58  mixed local/remote:0  remote:0)
    hole         : 1494

Selected 0 cells for refinement out of 1552.
Selected 0 split edges out of a possible 0.
PIMPLE: iteration 1
DILUPBiCGStab:  Solving for p, Initial residual = 0, Final residual = 0, No Iterations 0
time step continuity errors : sum local = 0, global = 0, cumulative = 0
DILUPBiCGStab:  Solving for p, Initial residual = 0, Final residual = 0, No Iterations 0
time step continuity errors : sum local = 0, global = 0, cumulative = 0
ExecutionTime = 3.84 s  ClockTime = 29 s

Courant Number mean: 0 max: 0
deltaT = 0.00025
Time = 0.0125

inverseDistance : detected 2 mesh regions
    zone:0 nCells:1296  voxels:(11 11 11) bb:(-1.41509717e-08 -1.41509717e-08 -1.41509717e-08) (0.01000001415 0.01000001415 0.000500014151)
    zone:1 nCells:256  voxels:(11 11 11) bb:(0.002472885671 0.001205561157 -9.131584202e-09) (0.007527114329 0.008794438843 0.0005000091316)
Overset analysis : nCells : 1552
    calculated   : 0
    interpolated : 52 (interpolated from local:52  mixed local/remote:0  remote:0)
    hole         : 1500

Selected 0 cells for refinement out of 1552.
Selected 0 split edges out of a possible 0.
PIMPLE: iteration 1
DILUPBiCGStab:  Solving for p, Initial residual = 0, Final residual = 0, No Iterations 0
time step continuity errors : sum local = 0, global = 0, cumulative = 0
DILUPBiCGStab:  Solving for p, Initial residual = 0, Final residual = 0, No Iterations 0
time step continuity errors : sum local = 0, global = 0, cumulative = 0
ExecutionTime = 3.91 s  ClockTime = 30 s

Courant Number mean: 0 max: 0
deltaT = 0.00025
Time = 0.01275

inverseDistance : detected 2 mesh regions
    zone:0 nCells:1296  voxels:(11 11 11) bb:(-1.41509717e-08 -1.41509717e-08 -1.41509717e-08) (0.01000001415 0.01000001415 0.000500014151)
    zone:1 nCells:256  voxels:(11 11 11) bb:(0.002544879592 0.001214742332 -9.037295842e-09) (0.007455120408 0.008785257668 0.0005000090373)
Overset analysis : nCells : 1552
    calculated   : 0
    interpolated : 44 (interpolated from local:44  mixed local/remote:0  remote:0)
    hole         : 1508

Selected 0 cells for refinement out of 1552.
Selected 0 split edges out of a possible 0.
PIMPLE: iteration 1
DILUPBiCGStab:  Solving for p, Initial residual = 0, Final residual = 0, No Iterations 0
time step continuity errors : sum local = 0, global = 0, cumulative = 0
DILUPBiCGStab:  Solving for p, Initial residual = 0, Final residual = 0, No Iterations 0
time step continuity errors : sum local = 0, global = 0, cumulative = 0
ExecutionTime = 3.99 s  ClockTime = 31 s

Courant Number mean: 0 max: 0
deltaT = 0.00025
Time = 0.013

inverseDistance : detected 2 mesh regions
    zone:0 nCells:1296  voxels:(11 11 11) bb:(-1.41509717e-08 -1.41509717e-08 -1.41509717e-08) (0.01000001415 0.01000001415 0.000500014151)
    zone:1 nCells:256  voxels:(11 11 11) bb:(0.002618407883 0.001226289169 -8.938739151e-09) (0.007381592117 0.008773710831 0.0005000089387)
Overset analysis : nCells : 1552
    calculated   : 0
    interpolated : 54 (interpolated from local:54  mixed local/remote:0  remote:0)
    hole         : 1498

Selected 0 cells for refinement out of 1552.
Selected 0 split edges out of a possible 0.
PIMPLE: iteration 1
DILUPBiCGStab:  Solving for p, Initial residual = 0, Final residual = 0, No Iterations 0
time step continuity errors : sum local = 0, global = 0, cumulative = 0
DILUPBiCGStab:  Solving for p, Initial residual = 0, Final residual = 0, No Iterations 0
time step continuity errors : sum local = 0, global = 0, cumulative = 0
ExecutionTime = 4.07 s  ClockTime = 31 s

Courant Number mean: 0 max: 0
deltaT = 0.00025
Time = 0.01325

inverseDistance : detected 2 mesh regions
    zone:0 nCells:1296  voxels:(11 11 11) bb:(-1.41509717e-08 -1.41509717e-08 -1.41509717e-08) (0.01000001415 0.01000001415 0.000500014151)
    zone:1 nCells:256  voxels:(11 11 11) bb:(0.00269342459 0.001240194451 -8.836021884e-09) (0.00730657541 0.008759805549 0.000500008836)
Overset analysis : nCells : 1552
    calculated   : 0
    interpolated : 32 (interpolated from local:32  mixed local/remote:0  remote:0)
    hole         : 1520

Selected 0 cells for refinement out of 1552.
Selected 0 split edges out of a possible 0.
PIMPLE: iteration 1
DILUPBiCGStab:  Solving for p, Initial residual = 0, Final residual = 0, No Iterations 0
time step continuity errors : sum local = 0, global = 0, cumulative = 0
DILUPBiCGStab:  Solving for p, Initial residual = 0, Final residual = 0, No Iterations 0
time step continuity errors : sum local = 0, global = 0, cumulative = 0
ExecutionTime = 4.15 s  ClockTime = 31 s

Courant Number mean: 0 max: 0
deltaT = 0.00025
Time = 0.0135

inverseDistance : detected 2 mesh regions
    zone:0 nCells:1296  voxels:(11 11 11) bb:(-1.41509717e-08 -1.41509717e-08 -1.41509717e-08) (0.01000001415 0.01000001415 0.000500014151)
    zone:1 nCells:256  voxels:(11 11 11) bb:(0.002769882829 0.001256449488 -8.729258558e-09) (0.007230117171 0.008743550512 0.0005000087293)
Overset analysis : nCells : 1552
    calculated   : 0
    interpolated : 36 (interpolated from local:36  mixed local/remote:0  remote:0)
    hole         : 1516

Selected 0 cells for refinement out of 1552.
Selected 0 split edges out of a possible 0.
PIMPLE: iteration 1
DILUPBiCGStab:  Solving for p, Initial residual = 0, Final residual = 0, No Iterations 0
time step continuity errors : sum local = 0, global = 0, cumulative = 0
DILUPBiCGStab:  Solving for p, Initial residual = 0, Final residual = 0, No Iterations 0
time step continuity errors : sum local = 0, global = 0, cumulative = 0
ExecutionTime = 4.23 s  ClockTime = 33 s

Courant Number mean: 0 max: 0
deltaT = 0.00025
Time = 0.01375

inverseDistance : detected 2 mesh regions
    zone:0 nCells:1296  voxels:(11 11 11) bb:(-1.41509717e-08 -1.41509717e-08 -1.41509717e-08) (0.01000001415 0.01000001415 0.000500014151)
    zone:1 nCells:256  voxels:(11 11 11) bb:(0.002847734818 0.00127504412 -8.618570744e-09) (0.007152265182 0.00872495588 0.0005000086186)
Overset analysis : nCells : 1552
    calculated   : 0
    interpolated : 54 (interpolated from local:54  mixed local/remote:0  remote:0)
    hole         : 1498

Selected 0 cells for refinement out of 1552.
Selected 0 split edges out of a possible 0.
PIMPLE: iteration 1
DILUPBiCGStab:  Solving for p, Initial residual = 0, Final residual = 0, No Iterations 0
time step continuity errors : sum local = 0, global = 0, cumulative = 0
DILUPBiCGStab:  Solving for p, Initial residual = 0, Final residual = 0, No Iterations 0
time step continuity errors : sum local = 0, global = 0, cumulative = 0
ExecutionTime = 4.31 s  ClockTime = 33 s

Courant Number mean: 0 max: 0
deltaT = 0.00025
Time = 0.014

inverseDistance : detected 2 mesh regions
    zone:0 nCells:1296  voxels:(11 11 11) bb:(-1.41509717e-08 -1.41509717e-08 -1.41509717e-08) (0.01000001415 0.01000001415 0.000500014151)
    zone:1 nCells:256  voxels:(11 11 11) bb:(0.002926931901 0.001295966727 -8.504087388e-09) (0.007073068099 0.008704033273 0.0005000085041)
Overset analysis : nCells : 1552
    calculated   : 0
    interpolated : 50 (interpolated from local:50  mixed local/remote:0  remote:0)
    hole         : 1502

Selected 0 cells for refinement out of 1552.
Selected 0 split edges out of a possible 0.
PIMPLE: iteration 1
DILUPBiCGStab:  Solving for p, Initial residual = 0, Final residual = 0, No Iterations 0
time step continuity errors : sum local = 0, global = 0, cumulative = 0
DILUPBiCGStab:  Solving for p, Initial residual = 0, Final residual = 0, No Iterations 0
time step continuity errors : sum local = 0, global = 0, cumulative = 0
ExecutionTime = 4.38 s  ClockTime = 33 s

Courant Number mean: 0 max: 0
deltaT = 0.00025
Time = 0.01425

inverseDistance : detected 2 mesh regions
    zone:0 nCells:1296  voxels:(11 11 11) bb:(-1.41509717e-08 -1.41509717e-08 -1.41509717e-08) (0.01000001415 0.01000001415 0.000500014151)
    zone:1 nCells:256  voxels:(11 11 11) bb:(0.003007424582 0.001319204232 -8.385945178e-09) (0.006992575418 0.008680795768 0.0005000083859)
Overset analysis : nCells : 1552
    calculated   : 0
    interpolated : 60 (interpolated from local:60  mixed local/remote:0  remote:0)
    hole         : 1492

Selected 0 cells for refinement out of 1552.
Selected 0 split edges out of a possible 0.
PIMPLE: iteration 1
DILUPBiCGStab:  Solving for p, Initial residual = 0, Final residual = 0, No Iterations 0
time step continuity errors : sum local = 0, global = 0, cumulative = 0
DILUPBiCGStab:  Solving for p, Initial residual = 0, Final residual = 0, No Iterations 0
time step continuity errors : sum local = 0, global = 0, cumulative = 0
ExecutionTime = 4.47 s  ClockTime = 34 s

Courant Number mean: 0 max: 0
deltaT = 0.00025
Time = 0.0145

inverseDistance : detected 2 mesh regions
    zone:0 nCells:1296  voxels:(11 11 11) bb:(-1.41509717e-08 -1.41509717e-08 -1.41509717e-08) (0.01000001415 0.01000001415 0.000500014151)
    zone:1 nCells:256  voxels:(11 11 11) bb:(0.003089162556 0.001344742113 -8.264288948e-09) (0.006910837444 0.008655257887 0.0005000082643)
Overset analysis : nCells : 1552
    calculated   : 0
    interpolated : 44 (interpolated from local:44  mixed local/remote:0  remote:0)
    hole         : 1508

Selected 0 cells for refinement out of 1552.
Selected 0 split edges out of a possible 0.
PIMPLE: iteration 1
DILUPBiCGStab:  Solving for p, Initial residual = 0, Final residual = 0, No Iterations 0
time step continuity errors : sum local = 0, global = 0, cumulative = 0
DILUPBiCGStab:  Solving for p, Initial residual = 0, Final residual = 0, No Iterations 0
time step continuity errors : sum local = 0, global = 0, cumulative = 0
ExecutionTime = 4.54 s  ClockTime = 34 s

Courant Number mean: 0 max: 0
deltaT = 0.00025
Time = 0.01475

inverseDistance : detected 2 mesh regions
    zone:0 nCells:1296  voxels:(11 11 11) bb:(-1.41509717e-08 -1.41509717e-08 -1.41509717e-08) (0.01000001415 0.01000001415 0.000500014151)
    zone:1 nCells:256  voxels:(11 11 11) bb:(0.00317209474 0.00137256441 -8.139272153e-09) (0.00682790526 0.00862743559 0.0005000081393)
Overset analysis : nCells : 1552
    calculated   : 0
    interpolated : 34 (interpolated from local:34  mixed local/remote:0  remote:0)
    hole         : 1518

Selected 0 cells for refinement out of 1552.
Selected 0 split edges out of a possible 0.
PIMPLE: iteration 1
DILUPBiCGStab:  Solving for p, Initial residual = 0, Final residual = 0, No Iterations 0
time step continuity errors : sum local = 0, global = 0, cumulative = 0
DILUPBiCGStab:  Solving for p, Initial residual = 0, Final residual = 0, No Iterations 0
time step continuity errors : sum local = 0, global = 0, cumulative = 0
ExecutionTime = 4.61 s  ClockTime = 35 s

Courant Number mean: 0 max: 0
deltaT = 0.00025
Time = 0.015

inverseDistance : detected 2 mesh regions
    zone:0 nCells:1296  voxels:(11 11 11) bb:(-1.41509717e-08 -1.41509717e-08 -1.41509717e-08) (0.01000001415 0.01000001415 0.000500014151)
    zone:1 nCells:256  voxels:(11 11 11) bb:(0.003256169303 0.001402653733 -8.01105738e-09) (0.006743830697 0.008597346267 0.0005000080111)
Overset analysis : nCells : 1552
    calculated   : 0
    interpolated : 54 (interpolated from local:54  mixed local/remote:0  remote:0)
    hole         : 1498

Selected 0 cells for refinement out of 1552.
Selected 0 split edges out of a possible 0.
PIMPLE: iteration 1
DILUPBiCGStab:  Solving for p, Initial residual = 0, Final residual = 0, No Iterations 0
time step continuity errors : sum local = 0, global = 0, cumulative = 0
DILUPBiCGStab:  Solving for p, Initial residual = 0, Final residual = 0, No Iterations 0
time step continuity errors : sum local = 0, global = 0, cumulative = 0
ExecutionTime = 4.69 s  ClockTime = 36 s

Courant Number mean: 0 max: 0
deltaT = 0.00025
Time = 0.01525

inverseDistance : detected 2 mesh regions
    zone:0 nCells:1296  voxels:(11 11 11) bb:(-1.41509717e-08 -1.41509717e-08 -1.41509717e-08) (0.01000001415 0.01000001415 0.000500014151)
    zone:1 nCells:256  voxels:(11 11 11) bb:(0.003341333702 0.001434991279 -7.879816939e-09) (0.006658666298 0.008565008721 0.0005000078798)
Overset analysis : nCells : 1552
    calculated   : 0
    interpolated : 54 (interpolated from local:54  mixed local/remote:0  remote:0)
    hole         : 1498

Selected 0 cells for refinement out of 1552.
Selected 0 split edges out of a possible 0.
PIMPLE: iteration 1
DILUPBiCGStab:  Solving for p, Initial residual = 0, Final residual = 0, No Iterations 0
time step continuity errors : sum local = 0, global = 0, cumulative = 0
DILUPBiCGStab:  Solving for p, Initial residual = 0, Final residual = 0, No Iterations 0
time step continuity errors : sum local = 0, global = 0, cumulative = 0
ExecutionTime = 4.76 s  ClockTime = 37 s

Courant Number mean: 0 max: 0
deltaT = 0.00025
Time = 0.0155

inverseDistance : detected 2 mesh regions
    zone:0 nCells:1296  voxels:(11 11 11) bb:(-1.41509717e-08 -1.41509717e-08 -1.41509717e-08) (0.01000001415 0.01000001415 0.000500014151)
    zone:1 nCells:256  voxels:(11 11 11) bb:(0.003427534711 0.001469556838 -7.745733524e-09) (0.006572465289 0.008530443162 0.0005000077457)
Overset analysis : nCells : 1552
    calculated   : 0
    interpolated : 54 (interpolated from local:54  mixed local/remote:0  remote:0)
    hole         : 1498

Selected 0 cells for refinement out of 1552.
Selected 0 split edges out of a possible 0.
PIMPLE: iteration 1
DILUPBiCGStab:  Solving for p, Initial residual = 0, Final residual = 0, No Iterations 0
time step continuity errors : sum local = 0, global = 0, cumulative = 0
DILUPBiCGStab:  Solving for p, Initial residual = 0, Final residual = 0, No Iterations 0
time step continuity errors : sum local = 0, global = 0, cumulative = 0
ExecutionTime = 4.84 s  ClockTime = 37 s

Courant Number mean: 0 max: 0
deltaT = 0.00025
Time = 0.01575

inverseDistance : detected 2 mesh regions
    zone:0 nCells:1296  voxels:(11 11 11) bb:(-1.41509717e-08 -1.41509717e-08 -1.41509717e-08) (0.01000001415 0.01000001415 0.000500014151)
    zone:1 nCells:256  voxels:(11 11 11) bb:(0.003485292785 0.001493717777 -7.655266449e-09) (0.006514707215 0.008506282223 0.0005000076553)
Overset analysis : nCells : 1552
    calculated   : 0
    interpolated : 40 (interpolated from local:40  mixed local/remote:0  remote:0)
    hole         : 1512

Selected 0 cells for refinement out of 1552.
Selected 0 split edges out of a possible 0.
PIMPLE: iteration 1
DILUPBiCGStab:  Solving for p, Initial residual = 0, Final residual = 0, No Iterations 0
time step continuity errors : sum local = 0, global = 0, cumulative = 0
DILUPBiCGStab:  Solving for p, Initial residual = 0, Final residual = 0, No Iterations 0
time step continuity errors : sum local = 0, global = 0, cumulative = 0
ExecutionTime = 4.91 s  ClockTime = 38 s

Courant Number mean: 0 max: 0
deltaT = 0.00025
Time = 0.016

inverseDistance : detected 2 mesh regions
    zone:0 nCells:1296  voxels:(11 11 11) bb:(-1.41509717e-08 -1.41509717e-08 -1.41509717e-08) (0.01000001415 0.01000001415 0.000500014151)
    zone:1 nCells:256  voxels:(11 11 11) bb:(0.003398433476 0.001457685315 -7.791130472e-09) (0.006601566524 0.008542314685 0.0005000077911)
Overset analysis : nCells : 1552
    calculated   : 0
    interpolated : 56 (interpolated from local:56  mixed local/remote:0  remote:0)
    hole         : 1496

Selected 0 cells for refinement out of 1552.
Selected 0 split edges out of a possible 0.
PIMPLE: iteration 1
DILUPBiCGStab:  Solving for p, Initial residual = 0, Final residual = 0, No Iterations 0
time step continuity errors : sum local = 0, global = 0, cumulative = 0
DILUPBiCGStab:  Solving for p, Initial residual = 0, Final residual = 0, No Iterations 0
time step continuity errors : sum local = 0, global = 0, cumulative = 0
ExecutionTime = 4.98 s  ClockTime = 38 s

Courant Number mean: 0 max: 0
deltaT = 0.00025
Time = 0.01625

inverseDistance : detected 2 mesh regions
    zone:0 nCells:1296  voxels:(11 11 11) bb:(-1.41509717e-08 -1.41509717e-08 -1.41509717e-08) (0.01000001415 0.01000001415 0.000500014151)
    zone:1 nCells:256  voxels:(11 11 11) bb:(0.003312575092 0.001423866681 -7.924278873e-09) (0.006687424908 0.008576133319 0.0005000079243)
Overset analysis : nCells : 1552
    calculated   : 0
    interpolated : 64 (interpolated from local:64  mixed local/remote:0  remote:0)
    hole         : 1488

Selected 0 cells for refinement out of 1552.
Selected 0 split edges out of a possible 0.
PIMPLE: iteration 1
DILUPBiCGStab:  Solving for p, Initial residual = 0, Final residual = 0, No Iterations 0
time step continuity errors : sum local = 0, global = 0, cumulative = 0
DILUPBiCGStab:  Solving for p, Initial residual = 0, Final residual = 0, No Iterations 0
time step continuity errors : sum local = 0, global = 0, cumulative = 0
ExecutionTime = 5.05 s  ClockTime = 39 s

Courant Number mean: 0 max: 0
deltaT = 0.00025
Time = 0.0165

inverseDistance : detected 2 mesh regions
    zone:0 nCells:1296  voxels:(11 11 11) bb:(-1.41509717e-08 -1.41509717e-08 -1.41509717e-08) (0.01000001415 0.01000001415 0.000500014151)
    zone:1 nCells:256  voxels:(11 11 11) bb:(0.003227771292 0.001392283013 -8.054521659e-09) (0.006772228708 0.008607716987 0.0005000080545)
Overset analysis : nCells : 1552
    calculated   : 0
    interpolated : 34 (interpolated from local:34  mixed local/remote:0  remote:0)
    hole         : 1518

Selected 0 cells for refinement out of 1552.
Selected 0 split edges out of a possible 0.
PIMPLE: iteration 1
DILUPBiCGStab:  Solving for p, Initial residual = 0, Final residual = 0, No Iterations 0
time step continuity errors : sum local = 0, global = 0, cumulative = 0
DILUPBiCGStab:  Solving for p, Initial residual = 0, Final residual = 0, No Iterations 0
time step continuity errors : sum local = 0, global = 0, cumulative = 0
ExecutionTime = 5.13 s  ClockTime = 39 s

Courant Number mean: 0 max: 0
deltaT = 0.00025
Time = 0.01675

inverseDistance : detected 2 mesh regions
    zone:0 nCells:1296  voxels:(11 11 11) bb:(-1.41509717e-08 -1.41509717e-08 -1.41509717e-08) (0.01000001415 0.01000001415 0.000500014151)
    zone:1 nCells:256  voxels:(11 11 11) bb:(0.003144075075 0.001362954048 -8.181679705e-09) (0.006855924925 0.008637045952 0.0005000081817)
Overset analysis : nCells : 1552
    calculated   : 0
    interpolated : 40 (interpolated from local:40  mixed local/remote:0  remote:0)
    hole         : 1512

Selected 0 cells for refinement out of 1552.
Selected 0 split edges out of a possible 0.
PIMPLE: iteration 1
DILUPBiCGStab:  Solving for p, Initial residual = 0, Final residual = 0, No Iterations 0
time step continuity errors : sum local = 0, global = 0, cumulative = 0
DILUPBiCGStab:  Solving for p, Initial residual = 0, Final residual = 0, No Iterations 0
time step continuity errors : sum local = 0, global = 0, cumulative = 0
ExecutionTime = 5.2 s  ClockTime = 40 s

Courant Number mean: 0 max: 0
deltaT = 0.00025
Time = 0.017

inverseDistance : detected 2 mesh regions
    zone:0 nCells:1296  voxels:(11 11 11) bb:(-1.41509717e-08 -1.41509717e-08 -1.41509717e-08) (0.01000001415 0.01000001415 0.000500014151)
    zone:1 nCells:256  voxels:(11 11 11) bb:(0.003061538749 0.001335898116 -8.305584043e-09) (0.006938461251 0.008664101884 0.0005000083056)
Overset analysis : nCells : 1552
    calculated   : 0
    interpolated : 48 (interpolated from local:48  mixed local/remote:0  remote:0)
    hole         : 1504

Selected 0 cells for refinement out of 1552.
Selected 0 split edges out of a possible 0.
PIMPLE: iteration 1
DILUPBiCGStab:  Solving for p, Initial residual = 0, Final residual = 0, No Iterations 0
time step continuity errors : sum local = 0, global = 0, cumulative = 0
DILUPBiCGStab:  Solving for p, Initial residual = 0, Final residual = 0, No Iterations 0
time step continuity errors : sum local = 0, global = 0, cumulative = 0
ExecutionTime = 5.28 s  ClockTime = 40 s

Courant Number mean: 0 max: 0
deltaT = 0.00025
Time = 0.01725

inverseDistance : detected 2 mesh regions
    zone:0 nCells:1296  voxels:(11 11 11) bb:(-1.41509717e-08 -1.41509717e-08 -1.41509717e-08) (0.01000001415 0.01000001415 0.000500014151)
    zone:1 nCells:256  voxels:(11 11 11) bb:(0.002980213896 0.001311132128 -8.426075214e-09) (0.007019786104 0.008688867872 0.0005000084261)
Overset analysis : nCells : 1552
    calculated   : 0
    interpolated : 52 (interpolated from local:52  mixed local/remote:0  remote:0)
    hole         : 1500

Selected 0 cells for refinement out of 1552.
Selected 0 split edges out of a possible 0.
PIMPLE: iteration 1
DILUPBiCGStab:  Solving for p, Initial residual = 0, Final residual = 0, No Iterations 0
time step continuity errors : sum local = 0, global = 0, cumulative = 0
DILUPBiCGStab:  Solving for p, Initial residual = 0, Final residual = 0, No Iterations 0
time step continuity errors : sum local = 0, global = 0, cumulative = 0
ExecutionTime = 5.36 s  ClockTime = 41 s

Courant Number mean: 0 max: 0
deltaT = 0.00025
Time = 0.0175

inverseDistance : detected 2 mesh regions
    zone:0 nCells:1296  voxels:(11 11 11) bb:(-1.41509717e-08 -1.41509717e-08 -1.41509717e-08) (0.01000001415 0.01000001415 0.000500014151)
    zone:1 nCells:256  voxels:(11 11 11) bb:(0.002900151342 0.001288671559 -8.543002725e-09) (0.007099848658 0.008711328441 0.000500008543)
Overset analysis : nCells : 1552
    calculated   : 0
    interpolated : 52 (interpolated from local:52  mixed local/remote:0  remote:0)
    hole         : 1500

Selected 0 cells for refinement out of 1552.
Selected 0 split edges out of a possible 0.
PIMPLE: iteration 1
DILUPBiCGStab:  Solving for p, Initial residual = 0, Final residual = 0, No Iterations 0
time step continuity errors : sum local = 0, global = 0, cumulative = 0
DILUPBiCGStab:  Solving for p, Initial residual = 0, Final residual = 0, No Iterations 0
time step continuity errors : sum local = 0, global = 0, cumulative = 0
ExecutionTime = 5.43 s  ClockTime = 41 s

Courant Number mean: 0 max: 0
deltaT = 0.00025
Time = 0.01775

inverseDistance : detected 2 mesh regions
    zone:0 nCells:1296  voxels:(11 11 11) bb:(-1.41509717e-08 -1.41509717e-08 -1.41509717e-08) (0.01000001415 0.01000001415 0.000500014151)
    zone:1 nCells:256  voxels:(11 11 11) bb:(0.002821401123 0.001268530449 -8.656224525e-09) (0.007178598877 0.008731469551 0.0005000086562)
Overset analysis : nCells : 1552
    calculated   : 0
    interpolated : 54 (interpolated from local:54  mixed local/remote:0  remote:0)
    hole         : 1498

Selected 0 cells for refinement out of 1552.
Selected 0 split edges out of a possible 0.
PIMPLE: iteration 1
DILUPBiCGStab:  Solving for p, Initial residual = 0, Final residual = 0, No Iterations 0
time step continuity errors : sum local = 0, global = 0, cumulative = 0
DILUPBiCGStab:  Solving for p, Initial residual = 0, Final residual = 0, No Iterations 0
time step continuity errors : sum local = 0, global = 0, cumulative = 0
ExecutionTime = 5.51 s  ClockTime = 42 s

Courant Number mean: 0 max: 0
deltaT = 0.00025
Time = 0.018

inverseDistance : detected 2 mesh regions
    zone:0 nCells:1296  voxels:(11 11 11) bb:(-1.41509717e-08 -1.41509717e-08 -1.41509717e-08) (0.01000001415 0.01000001415 0.000500014151)
    zone:1 nCells:256  voxels:(11 11 11) bb:(0.002744012457 0.001250721384 -8.765606574e-09) (0.007255987543 0.008749278616 0.0005000087656)
Overset analysis : nCells : 1552
    calculated   : 0
    interpolated : 36 (interpolated from local:36  mixed local/remote:0  remote:0)
    hole         : 1516

Selected 0 cells for refinement out of 1552.
Selected 0 split edges out of a possible 0.
PIMPLE: iteration 1
DILUPBiCGStab:  Solving for p, Initial residual = 0, Final residual = 0, No Iterations 0
time step continuity errors : sum local = 0, global = 0, cumulative = 0
DILUPBiCGStab:  Solving for p, Initial residual = 0, Final residual = 0, No Iterations 0
time step continuity errors : sum local = 0, global = 0, cumulative = 0
ExecutionTime = 5.58 s  ClockTime = 43 s

Courant Number mean: 0 max: 0
deltaT = 0.00025
Time = 0.01825

inverseDistance : detected 2 mesh regions
    zone:0 nCells:1296  voxels:(11 11 11) bb:(-1.41509717e-08 -1.41509717e-08 -1.41509717e-08) (0.01000001415 0.01000001415 0.000500014151)
    zone:1 nCells:256  voxels:(11 11 11) bb:(0.002668033707 0.001235255495 -8.871022445e-09) (0.007331966293 0.008764744505 0.000500008871)
Overset analysis : nCells : 1552
    calculated   : 0
    interpolated : 38 (interpolated from local:38  mixed local/remote:0  remote:0)
    hole         : 1514

Selected 0 cells for refinement out of 1552.
Selected 0 split edges out of a possible 0.
PIMPLE: iteration 1
DILUPBiCGStab:  Solving for p, Initial residual = 0, Final residual = 0, No Iterations 0
time step continuity errors : sum local = 0, global = 0, cumulative = 0
DILUPBiCGStab:  Solving for p, Initial residual = 0, Final residual = 0, No Iterations 0
time step continuity errors : sum local = 0, global = 0, cumulative = 0
ExecutionTime = 5.66 s  ClockTime = 43 s

Courant Number mean: 0 max: 0
deltaT = 0.00025
Time = 0.0185

inverseDistance : detected 2 mesh regions
    zone:0 nCells:1296  voxels:(11 11 11) bb:(-1.41509717e-08 -1.41509717e-08 -1.41509717e-08) (0.01000001415 0.01000001415 0.000500014151)
    zone:1 nCells:256  voxels:(11 11 11) bb:(0.002593512359 0.001222142447 -8.972352976e-09) (0.007406487641 0.008777857553 0.0005000089724)
Overset analysis : nCells : 1552
    calculated   : 0
    interpolated : 54 (interpolated from local:54  mixed local/remote:0  remote:0)
    hole         : 1498

Selected 0 cells for refinement out of 1552.
Selected 0 split edges out of a possible 0.
PIMPLE: iteration 1
DILUPBiCGStab:  Solving for p, Initial residual = 0, Final residual = 0, No Iterations 0
time step continuity errors : sum local = 0, global = 0, cumulative = 0
DILUPBiCGStab:  Solving for p, Initial residual = 0, Final residual = 0, No Iterations 0
time step continuity errors : sum local = 0, global = 0, cumulative = 0
ExecutionTime = 5.75 s  ClockTime = 43 s

Courant Number mean: 0 max: 0
deltaT = 0.00025
Time = 0.01875

inverseDistance : detected 2 mesh regions
    zone:0 nCells:1296  voxels:(11 11 11) bb:(-1.41509717e-08 -1.41509717e-08 -1.41509717e-08) (0.01000001415 0.01000001415 0.000500014151)
    zone:1 nCells:256  voxels:(11 11 11) bb:(0.002520494986 0.001211390436 -9.069485949e-09) (0.007479505014 0.008788609564 0.0005000090695)
Overset analysis : nCells : 1552
    calculated   : 0
    interpolated : 44 (interpolated from local:44  mixed local/remote:0  remote:0)
    hole         : 1508

Selected 0 cells for refinement out of 1552.
Selected 0 split edges out of a possible 0.
PIMPLE: iteration 1
DILUPBiCGStab:  Solving for p, Initial residual = 0, Final residual = 0, No Iterations 0
time step continuity errors : sum local = 0, global = 0, cumulative = 0
DILUPBiCGStab:  Solving for p, Initial residual = 0, Final residual = 0, No Iterations 0
time step continuity errors : sum local = 0, global = 0, cumulative = 0
ExecutionTime = 5.84 s  ClockTime = 43 s

Courant Number mean: 0 max: 0
deltaT = 0.00025
Time = 0.019

inverseDistance : detected 2 mesh regions
    zone:0 nCells:1296  voxels:(11 11 11) bb:(-1.41509717e-08 -1.41509717e-08 -1.41509717e-08) (0.01000001415 0.01000001415 0.000500014151)
    zone:1 nCells:256  voxels:(11 11 11) bb:(0.002449027222 0.00120300618 -9.162315832e-09) (0.007550972778 0.00879699382 0.0005000091623)
Overset analysis : nCells : 1552
    calculated   : 0
    interpolated : 54 (interpolated from local:54  mixed local/remote:0  remote:0)
    hole         : 1498

Selected 0 cells for refinement out of 1552.
Selected 0 split edges out of a possible 0.
PIMPLE: iteration 1
DILUPBiCGStab:  Solving for p, Initial residual = 0, Final residual = 0, No Iterations 0
time step continuity errors : sum local = 0, global = 0, cumulative = 0
DILUPBiCGStab:  Solving for p, Initial residual = 0, Final residual = 0, No Iterations 0
time step continuity errors : sum local = 0, global = 0, cumulative = 0
ExecutionTime = 5.91 s  ClockTime = 44 s

Courant Number mean: 0 max: 0
deltaT = 0.00025
Time = 0.01925

inverseDistance : detected 2 mesh regions
[...]
    interpolated : 34 (interpolated from local:34  mixed local/remote:0  remote:0)
    hole         : 1518

Selected 0 cells for refinement out of 1552.
Selected 0 split edges out of a possible 0.
PIMPLE: iteration 1
DILUPBiCGStab:  Solving for p, Initial residual = 0, Final residual = 0, No Iterations 0
time step continuity errors : sum local = 0, global = 0, cumulative = 0
DILUPBiCGStab:  Solving for p, Initial residual = 0, Final residual = 0, No Iterations 0
time step continuity errors : sum local = 0, global = 0, cumulative = 0
ExecutionTime = 32.67 s  ClockTime = 72 s

Courant Number mean: 0 max: 0
deltaT = 0.00025
Time = 0.0955

inverseDistance : detected 2 mesh regions
    zone:0 nCells:1296  voxels:(11 11 11) bb:(-1.41509717e-08 -1.41509717e-08 -1.41509717e-08) (0.01000001415 0.01000001415 0.000500014151)
    zone:1 nCells:256  voxels:(11 11 11) bb:(0.001340054298 0.003074604144 -8.286074869e-09) (0.008659945702 0.006925395856 0.0005000082861)
Overset analysis : nCells : 1552
    calculated   : 0
    interpolated : 48 (interpolated from local:48  mixed local/remote:0  remote:0)
    hole         : 1504

Selected 0 cells for refinement out of 1552.
Selected 0 split edges out of a possible 0.
PIMPLE: iteration 1
DILUPBiCGStab:  Solving for p, Initial residual = 0, Final residual = 0, No Iterations 0
time step continuity errors : sum local = 0, global = 0, cumulative = 0
DILUPBiCGStab:  Solving for p, Initial residual = 0, Final residual = 0, No Iterations 0
time step continuity errors : sum local = 0, global = 0, cumulative = 0
ExecutionTime = 32.74 s  ClockTime = 72 s

Courant Number mean: 0 max: 0
deltaT = 0.00025
Time = 0.09575

inverseDistance : detected 2 mesh regions
    zone:0 nCells:1296  voxels:(11 11 11) bb:(-1.41509717e-08 -1.41509717e-08 -1.41509717e-08) (0.01000001415 0.01000001415 0.000500014151)
    zone:1 nCells:256  voxels:(11 11 11) bb:(0.001314922527 0.002993082923 -8.407119941e-09) (0.008685077473 0.007006917077 0.0005000084071)
Overset analysis : nCells : 1552
    calculated   : 0
    interpolated : 58 (interpolated from local:58  mixed local/remote:0  remote:0)
    hole         : 1494

Selected 0 cells for refinement out of 1552.
Selected 0 split edges out of a possible 0.
PIMPLE: iteration 1
DILUPBiCGStab:  Solving for p, Initial residual = 0, Final residual = 0, No Iterations 0
time step continuity errors : sum local = 0, global = 0, cumulative = 0
DILUPBiCGStab:  Solving for p, Initial residual = 0, Final residual = 0, No Iterations 0
time step continuity errors : sum local = 0, global = 0, cumulative = 0
ExecutionTime = 32.83 s  ClockTime = 73 s

Courant Number mean: 0 max: 0
deltaT = 0.00025
Time = 0.096

inverseDistance : detected 2 mesh regions
    zone:0 nCells:1296  voxels:(11 11 11) bb:(-1.41509717e-08 -1.41509717e-08 -1.41509717e-08) (0.01000001415 0.01000001415 0.000500014151)
    zone:1 nCells:256  voxels:(11 11 11) bb:(0.001292093808 0.002912815957 -8.524624744e-09) (0.008707906192 0.007087184043 0.0005000085246)
Overset analysis : nCells : 1552
    calculated   : 0
    interpolated : 50 (interpolated from local:50  mixed local/remote:0  remote:0)
    hole         : 1502

Selected 0 cells for refinement out of 1552.
Selected 0 split edges out of a possible 0.
PIMPLE: iteration 1
DILUPBiCGStab:  Solving for p, Initial residual = 0, Final residual = 0, No Iterations 0
time step continuity errors : sum local = 0, global = 0, cumulative = 0
DILUPBiCGStab:  Solving for p, Initial residual = 0, Final residual = 0, No Iterations 0
time step continuity errors : sum local = 0, global = 0, cumulative = 0
ExecutionTime = 32.91 s  ClockTime = 73 s

Courant Number mean: 0 max: 0
deltaT = 0.00025
Time = 0.09625

inverseDistance : detected 2 mesh regions
    zone:0 nCells:1296  voxels:(11 11 11) bb:(-1.41509717e-08 -1.41509717e-08 -1.41509717e-08) (0.01000001415 0.01000001415 0.000500014151)
    zone:1 nCells:256  voxels:(11 11 11) bb:(0.001271582408 0.002833853413 -8.63844591e-09) (0.008728417592 0.007166146587 0.0005000086384)
Overset analysis : nCells : 1552
    calculated   : 0
    interpolated : 54 (interpolated from local:54  mixed local/remote:0  remote:0)
    hole         : 1498

Selected 0 cells for refinement out of 1552.
Selected 0 split edges out of a possible 0.
PIMPLE: iteration 1
DILUPBiCGStab:  Solving for p, Initial residual = 0, Final residual = 0, No Iterations 0
time step continuity errors : sum local = 0, global = 0, cumulative = 0
DILUPBiCGStab:  Solving for p, Initial residual = 0, Final residual = 0, No Iterations 0
time step continuity errors : sum local = 0, global = 0, cumulative = 0
ExecutionTime = 33.01 s  ClockTime = 73 s

Courant Number mean: 0 max: 0
deltaT = 0.00025
Time = 0.0965

inverseDistance : detected 2 mesh regions
    zone:0 nCells:1296  voxels:(11 11 11) bb:(-1.41509717e-08 -1.41509717e-08 -1.41509717e-08) (0.01000001415 0.01000001415 0.000500014151)
    zone:1 nCells:256  voxels:(11 11 11) bb:(0.001253401146 0.002756244637 -8.748448157e-09) (0.008746598854 0.007243755363 0.0005000087484)
Overset analysis : nCells : 1552
    calculated   : 0
    interpolated : 36 (interpolated from local:36  mixed local/remote:0  remote:0)
    hole         : 1516

Selected 0 cells for refinement out of 1552.
Selected 0 split edges out of a possible 0.
PIMPLE: iteration 1
DILUPBiCGStab:  Solving for p, Initial residual = 0, Final residual = 0, No Iterations 0
time step continuity errors : sum local = 0, global = 0, cumulative = 0
DILUPBiCGStab:  Solving for p, Initial residual = 0, Final residual = 0, No Iterations 0
time step continuity errors : sum local = 0, global = 0, cumulative = 0
ExecutionTime = 33.13 s  ClockTime = 73 s

Courant Number mean: 0 max: 0
deltaT = 0.00025
Time = 0.09675

inverseDistance : detected 2 mesh regions
    zone:0 nCells:1296  voxels:(11 11 11) bb:(-1.41509717e-08 -1.41509717e-08 -1.41509717e-08) (0.01000001415 0.01000001415 0.000500014151)
    zone:1 nCells:256  voxels:(11 11 11) bb:(0.001237561385 0.002680038135 -8.854503865e-09) (0.008762438615 0.007319961865 0.0005000088545)
Overset analysis : nCells : 1552
    calculated   : 0
    interpolated : 32 (interpolated from local:32  mixed local/remote:0  remote:0)
    hole         : 1520

Selected 0 cells for refinement out of 1552.
Selected 0 split edges out of a possible 0.
PIMPLE: iteration 1
DILUPBiCGStab:  Solving for p, Initial residual = 0, Final residual = 0, No Iterations 0
time step continuity errors : sum local = 0, global = 0, cumulative = 0
DILUPBiCGStab:  Solving for p, Initial residual = 0, Final residual = 0, No Iterations 0
time step continuity errors : sum local = 0, global = 0, cumulative = 0
ExecutionTime = 33.23 s  ClockTime = 73 s

Courant Number mean: 0 max: 0
deltaT = 0.00025
Time = 0.097

inverseDistance : detected 2 mesh regions
    zone:0 nCells:1296  voxels:(11 11 11) bb:(-1.41509717e-08 -1.41509717e-08 -1.41509717e-08) (0.01000001415 0.01000001415 0.000500014151)
    zone:1 nCells:256  voxels:(11 11 11) bb:(0.001224073024 0.002605281531 -8.956492736e-09) (0.008775926976 0.007394718469 0.0005000089565)
Overset analysis : nCells : 1552
    calculated   : 0
    interpolated : 54 (interpolated from local:54  mixed local/remote:0  remote:0)
    hole         : 1498

Selected 0 cells for refinement out of 1552.
Selected 0 split edges out of a possible 0.
PIMPLE: iteration 1
DILUPBiCGStab:  Solving for p, Initial residual = 0, Final residual = 0, No Iterations 0
time step continuity errors : sum local = 0, global = 0, cumulative = 0
DILUPBiCGStab:  Solving for p, Initial residual = 0, Final residual = 0, No Iterations 0
time step continuity errors : sum local = 0, global = 0, cumulative = 0
ExecutionTime = 33.31 s  ClockTime = 73 s

Courant Number mean: 0 max: 0
deltaT = 0.00025
Time = 0.09725

inverseDistance : detected 2 mesh regions
    zone:0 nCells:1296  voxels:(11 11 11) bb:(-1.41509717e-08 -1.41509717e-08 -1.41509717e-08) (0.01000001415 0.01000001415 0.000500014151)
    zone:1 nCells:256  voxels:(11 11 11) bb:(0.001212944494 0.002532021548 -9.054301471e-09) (0.008787055506 0.007467978452 0.0005000090543)
Overset analysis : nCells : 1552
    calculated   : 0
    interpolated : 42 (interpolated from local:42  mixed local/remote:0  remote:0)
    hole         : 1510

Selected 0 cells for refinement out of 1552.
Selected 0 split edges out of a possible 0.
PIMPLE: iteration 1
DILUPBiCGStab:  Solving for p, Initial residual = 0, Final residual = 0, No Iterations 0
time step continuity errors : sum local = 0, global = 0, cumulative = 0
DILUPBiCGStab:  Solving for p, Initial residual = 0, Final residual = 0, No Iterations 0
time step continuity errors : sum local = 0, global = 0, cumulative = 0
ExecutionTime = 33.39 s  ClockTime = 73 s

Courant Number mean: 0 max: 0
deltaT = 0.00025
Time = 0.0975

inverseDistance : detected 2 mesh regions
    zone:0 nCells:1296  voxels:(11 11 11) bb:(-1.41509717e-08 -1.41509717e-08 -1.41509717e-08) (0.01000001415 0.01000001415 0.000500014151)
    zone:1 nCells:256  voxels:(11 11 11) bb:(0.001204182748 0.002460303969 -9.147823486e-09) (0.008795817252 0.007539696031 0.0005000091478)
Overset analysis : nCells : 1552
    calculated   : 0
    interpolated : 48 (interpolated from local:48  mixed local/remote:0  remote:0)
    hole         : 1504

Selected 0 cells for refinement out of 1552.
Selected 0 split edges out of a possible 0.
PIMPLE: iteration 1
DILUPBiCGStab:  Solving for p, Initial residual = 0, Final residual = 0, No Iterations 0
time step continuity errors : sum local = 0, global = 0, cumulative = 0
DILUPBiCGStab:  Solving for p, Initial residual = 0, Final residual = 0, No Iterations 0
time step continuity errors : sum local = 0, global = 0, cumulative = 0
ExecutionTime = 33.48 s  ClockTime = 73 s

Courant Number mean: 0 max: 0
deltaT = 0.00025
Time = 0.09775

inverseDistance : detected 2 mesh regions
    zone:0 nCells:1296  voxels:(11 11 11) bb:(-1.41509717e-08 -1.41509717e-08 -1.41509717e-08) (0.01000001415 0.01000001415 0.000500014151)
    zone:1 nCells:256  voxels:(11 11 11) bb:(0.001197793263 0.002390173616 -9.236958672e-09) (0.008802206737 0.007609826384 0.000500009237)
Overset analysis : nCells : 1552
    calculated   : 0
    interpolated : 60 (interpolated from local:60  mixed local/remote:0  remote:0)
    hole         : 1492

Selected 0 cells for refinement out of 1552.
Selected 0 split edges out of a possible 0.
PIMPLE: iteration 1
DILUPBiCGStab:  Solving for p, Initial residual = 0, Final residual = 0, No Iterations 0
time step continuity errors : sum local = 0, global = 0, cumulative = 0
DILUPBiCGStab:  Solving for p, Initial residual = 0, Final residual = 0, No Iterations 0
time step continuity errors : sum local = 0, global = 0, cumulative = 0
ExecutionTime = 33.56 s  ClockTime = 73 s

Courant Number mean: 0 max: 0
deltaT = 0.00025
Time = 0.098

inverseDistance : detected 2 mesh regions
    zone:0 nCells:1296  voxels:(11 11 11) bb:(-1.41509717e-08 -1.41509717e-08 -1.41509717e-08) (0.01000001415 0.01000001415 0.000500014151)
    zone:1 nCells:256  voxels:(11 11 11) bb:(0.001193780032 0.002321674318 -9.321613167e-09) (0.008806219968 0.007678325682 0.0005000093216)
Overset analysis : nCells : 1552
    calculated   : 0
    interpolated : 62 (interpolated from local:62  mixed local/remote:0  remote:0)
    hole         : 1490

Selected 0 cells for refinement out of 1552.
Selected 0 split edges out of a possible 0.
PIMPLE: iteration 1
DILUPBiCGStab:  Solving for p, Initial residual = 0, Final residual = 0, No Iterations 0
time step continuity errors : sum local = 0, global = 0, cumulative = 0
DILUPBiCGStab:  Solving for p, Initial residual = 0, Final residual = 0, No Iterations 0
time step continuity errors : sum local = 0, global = 0, cumulative = 0
ExecutionTime = 33.65 s  ClockTime = 73 s

Courant Number mean: 0 max: 0
deltaT = 0.00025
Time = 0.09825

inverseDistance : detected 2 mesh regions
    zone:0 nCells:1296  voxels:(11 11 11) bb:(-1.41509717e-08 -1.41509717e-08 -1.41509717e-08) (0.01000001415 0.01000001415 0.000500014151)
    zone:1 nCells:256  voxels:(11 11 11) bb:(0.001192145564 0.002254848885 -9.401699173e-09) (0.008807854436 0.007745151115 0.0005000094017)
Overset analysis : nCells : 1552
    calculated   : 0
    interpolated : 50 (interpolated from local:50  mixed local/remote:0  remote:0)
    hole         : 1502

Selected 0 cells for refinement out of 1552.
Selected 0 split edges out of a possible 0.
PIMPLE: iteration 1
DILUPBiCGStab:  Solving for p, Initial residual = 0, Final residual = 0, No Iterations 0
time step continuity errors : sum local = 0, global = 0, cumulative = 0
DILUPBiCGStab:  Solving for p, Initial residual = 0, Final residual = 0, No Iterations 0
time step continuity errors : sum local = 0, global = 0, cumulative = 0
ExecutionTime = 33.73 s  ClockTime = 73 s

Courant Number mean: 0 max: 0
deltaT = 0.00025
Time = 0.0985

inverseDistance : detected 2 mesh regions
    zone:0 nCells:1296  voxels:(11 11 11) bb:(-1.41509717e-08 -1.41509717e-08 -1.41509717e-08) (0.01000001415 0.01000001415 0.000500014151)
    zone:1 nCells:256  voxels:(11 11 11) bb:(0.001192890879 0.002189739081 -9.47713477e-09) (0.008807109121 0.007810260919 0.0005000094771)
Overset analysis : nCells : 1552
    calculated   : 0
    interpolated : 64 (interpolated from local:64  mixed local/remote:0  remote:0)
    hole         : 1488

Selected 0 cells for refinement out of 1552.
Selected 0 split edges out of a possible 0.
PIMPLE: iteration 1
DILUPBiCGStab:  Solving for p, Initial residual = 0, Final residual = 0, No Iterations 0
time step continuity errors : sum local = 0, global = 0, cumulative = 0
DILUPBiCGStab:  Solving for p, Initial residual = 0, Final residual = 0, No Iterations 0
time step continuity errors : sum local = 0, global = 0, cumulative = 0
ExecutionTime = 33.82 s  ClockTime = 74 s

Courant Number mean: 0 max: 0
deltaT = 0.00025
Time = 0.09875

inverseDistance : detected 2 mesh regions
    zone:0 nCells:1296  voxels:(11 11 11) bb:(-1.41509717e-08 -1.41509717e-08 -1.41509717e-08) (0.01000001415 0.01000001415 0.000500014151)
    zone:1 nCells:256  voxels:(11 11 11) bb:(0.001196015513 0.002126385598 -9.547843777e-09) (0.008803984487 0.007873614402 0.0005000095478)
Overset analysis : nCells : 1552
    calculated   : 0
    interpolated : 58 (interpolated from local:58  mixed local/remote:0  remote:0)
    hole         : 1494

Selected 0 cells for refinement out of 1552.
Selected 0 split edges out of a possible 0.
PIMPLE: iteration 1
DILUPBiCGStab:  Solving for p, Initial residual = 0, Final residual = 0, No Iterations 0
time step continuity errors : sum local = 0, global = 0, cumulative = 0
DILUPBiCGStab:  Solving for p, Initial residual = 0, Final residual = 0, No Iterations 0
time step continuity errors : sum local = 0, global = 0, cumulative = 0
ExecutionTime = 33.91 s  ClockTime = 74 s

Courant Number mean: 0 max: 0
deltaT = 0.00025
Time = 0.099

inverseDistance : detected 2 mesh regions
    zone:0 nCells:1296  voxels:(11 11 11) bb:(-1.41509717e-08 -1.41509717e-08 -1.41509717e-08) (0.01000001415 0.01000001415 0.000500014151)
    zone:1 nCells:256  voxels:(11 11 11) bb:(0.001201517511 0.002064828029 -9.613755613e-09) (0.008798482489 0.007935171971 0.0005000096138)
Overset analysis : nCells : 1552
    calculated   : 0
    interpolated : 70 (interpolated from local:70  mixed local/remote:0  remote:0)
    hole         : 1482

Selected 0 cells for refinement out of 1552.
Selected 0 split edges out of a possible 0.
PIMPLE: iteration 1
DILUPBiCGStab:  Solving for p, Initial residual = 0, Final residual = 0, No Iterations 0
time step continuity errors : sum local = 0, global = 0, cumulative = 0
DILUPBiCGStab:  Solving for p, Initial residual = 0, Final residual = 0, No Iterations 0
time step continuity errors : sum local = 0, global = 0, cumulative = 0
ExecutionTime = 34 s  ClockTime = 74 s

Courant Number mean: 0 max: 0
deltaT = 0.00025
Time = 0.09925

inverseDistance : detected 2 mesh regions
    zone:0 nCells:1296  voxels:(11 11 11) bb:(-1.41509717e-08 -1.41509717e-08 -1.41509717e-08) (0.01000001415 0.01000001415 0.000500014151)
    zone:1 nCells:256  voxels:(11 11 11) bb:(0.001209393437 0.002005104846 -9.674805177e-09) (0.008790606563 0.007994895154 0.0005000096748)
Overset analysis : nCells : 1552
    calculated   : 0
    interpolated : 76 (interpolated from local:76  mixed local/remote:0  remote:0)
    hole         : 1476

Selected 0 cells for refinement out of 1552.
Selected 0 split edges out of a possible 0.
PIMPLE: iteration 1
DILUPBiCGStab:  Solving for p, Initial residual = 0, Final residual = 0, No Iterations 0
time step continuity errors : sum local = 0, global = 0, cumulative = 0
DILUPBiCGStab:  Solving for p, Initial residual = 0, Final residual = 0, No Iterations 0
time step continuity errors : sum local = 0, global = 0, cumulative = 0
ExecutionTime = 34.1 s  ClockTime = 74 s

Courant Number mean: 0 max: 0
deltaT = 0.00025
Time = 0.0995

inverseDistance : detected 2 mesh regions
    zone:0 nCells:1296  voxels:(11 11 11) bb:(-1.41509717e-08 -1.41509717e-08 -1.41509717e-08) (0.01000001415 0.01000001415 0.000500014151)
    zone:1 nCells:256  voxels:(11 11 11) bb:(0.001219638367 0.001947253373 -9.730932753e-09) (0.008780361633 0.008052746627 0.0005000097309)
Overset analysis : nCells : 1552
    calculated   : 0
    interpolated : 74 (interpolated from local:74  mixed local/remote:0  remote:0)
    hole         : 1478

Selected 0 cells for refinement out of 1552.
Selected 0 split edges out of a possible 0.
PIMPLE: iteration 1
DILUPBiCGStab:  Solving for p, Initial residual = 0, Final residual = 0, No Iterations 0
time step continuity errors : sum local = 0, global = 0, cumulative = 0
DILUPBiCGStab:  Solving for p, Initial residual = 0, Final residual = 0, No Iterations 0
time step continuity errors : sum local = 0, global = 0, cumulative = 0
ExecutionTime = 34.19 s  ClockTime = 74 s

Courant Number mean: 0 max: 0
deltaT = 0.00025
Time = 0.09975

inverseDistance : detected 2 mesh regions
    zone:0 nCells:1296  voxels:(11 11 11) bb:(-1.41509717e-08 -1.41509717e-08 -1.41509717e-08) (0.01000001415 0.01000001415 0.000500014151)
    zone:1 nCells:256  voxels:(11 11 11) bb:(0.001232245899 0.001891309767 -9.782083909e-09) (0.008767754101 0.008108690233 0.0005000097821)
Overset analysis : nCells : 1552
    calculated   : 0
    interpolated : 54 (interpolated from local:54  mixed local/remote:0  remote:0)
    hole         : 1498

Selected 0 cells for refinement out of 1552.
Selected 0 split edges out of a possible 0.
PIMPLE: iteration 1
DILUPBiCGStab:  Solving for p, Initial residual = 0, Final residual = 0, No Iterations 0
time step continuity errors : sum local = 0, global = 0, cumulative = 0
DILUPBiCGStab:  Solving for p, Initial residual = 0, Final residual = 0, No Iterations 0
time step continuity errors : sum local = 0, global = 0, cumulative = 0
ExecutionTime = 34.27 s  ClockTime = 74 s

Courant Number mean: 0 max: 0
deltaT = 0.00025
Time = 0.1

inverseDistance : detected 2 mesh regions
    zone:0 nCells:1296  voxels:(11 11 11) bb:(-1.41509717e-08 -1.41509717e-08 -1.41509717e-08) (0.01000001415 0.01000001415 0.000500014151)
    zone:1 nCells:256  voxels:(11 11 11) bb:(0.001247208154 0.00183730899 -9.828209426e-09) (0.008752791846 0.00816269101 0.0005000098282)
Overset analysis : nCells : 1552
    calculated   : 0
    interpolated : 54 (interpolated from local:54  mixed local/remote:0  remote:0)
    hole         : 1498

Selected 0 cells for refinement out of 1552.
Selected 0 split edges out of a possible 0.
PIMPLE: iteration 1
DILUPBiCGStab:  Solving for p, Initial residual = 0, Final residual = 0, No Iterations 0
time step continuity errors : sum local = 0, global = 0, cumulative = 0
DILUPBiCGStab:  Solving for p, Initial residual = 0, Final residual = 0, No Iterations 0
time step continuity errors : sum local = 0, global = 0, cumulative = 0
ExecutionTime = 34.36 s  ClockTime = 74 s

End

